
---------- Begin Simulation Statistics ----------
sim_seconds                                  0.314253                       # Number of seconds simulated
sim_ticks                                314253114500                       # Number of ticks simulated
final_tick                               5532072946500                       # Number of ticks from beginning of simulation (restored from checkpoints and never reset)
sim_freq                                 1000000000000                       # Frequency of simulated ticks
host_inst_rate                                 681268                       # Simulator instruction rate (inst/s)
host_op_rate                                  1257276                       # Simulator op (including micro ops) rate (op/s)
host_tick_rate                              713635707                       # Simulator tick rate (ticks/s)
host_mem_usage                                1750900                       # Number of bytes of host memory used
host_seconds                                   440.36                       # Real time elapsed on the host
sim_insts                                   300000000                       # Number of instructions simulated
sim_ops                                     553647965                       # Number of ops (including micro ops) simulated
system.voltage_domain.voltage                       1                       # Voltage in Volts
system.clk_domain.clock                          1000                       # Clock period in ticks
system.mem_ctrls0.pwrStateResidencyTicks::UNDEFINED 5532072946500                       # Cumulative time (in ticks) in various power states
system.mem_ctrls0.bytes_read::ruby.dir_cntrl0       361536                       # Number of bytes read from this memory
system.mem_ctrls0.bytes_read::total            361536                       # Number of bytes read from this memory
system.mem_ctrls0.bytes_written::ruby.dir_cntrl0       484736                       # Number of bytes written to this memory
system.mem_ctrls0.bytes_written::total         484736                       # Number of bytes written to this memory
system.mem_ctrls0.num_reads::ruby.dir_cntrl0         5649                       # Number of read requests responded to by this memory
system.mem_ctrls0.num_reads::total               5649                       # Number of read requests responded to by this memory
system.mem_ctrls0.num_writes::ruby.dir_cntrl0         7574                       # Number of write requests responded to by this memory
system.mem_ctrls0.num_writes::total              7574                       # Number of write requests responded to by this memory
system.mem_ctrls0.bw_read::ruby.dir_cntrl0      1150461                       # Total read bandwidth from this memory (bytes/s)
system.mem_ctrls0.bw_read::total              1150461                       # Total read bandwidth from this memory (bytes/s)
system.mem_ctrls0.bw_write::ruby.dir_cntrl0      1542502                       # Write bandwidth from this memory (bytes/s)
system.mem_ctrls0.bw_write::total             1542502                       # Write bandwidth from this memory (bytes/s)
system.mem_ctrls0.bw_total::ruby.dir_cntrl0      2692963                       # Total bandwidth to/from this memory (bytes/s)
system.mem_ctrls0.bw_total::total             2692963                       # Total bandwidth to/from this memory (bytes/s)
system.mem_ctrls0.readReqs                       5649                       # Number of read requests accepted
system.mem_ctrls0.writeReqs                      7574                       # Number of write requests accepted
system.mem_ctrls0.readBursts                     5649                       # Number of DRAM read bursts, including those serviced by the write queue
system.mem_ctrls0.writeBursts                    7574                       # Number of DRAM write bursts, including those merged in the write queue
system.mem_ctrls0.bytesReadDRAM                343104                       # Total number of bytes read from DRAM
system.mem_ctrls0.bytesReadWrQ                  18432                       # Total number of bytes read from write queue
system.mem_ctrls0.bytesWritten                 480576                       # Total number of bytes written to DRAM
system.mem_ctrls0.bytesReadSys                 361536                       # Total read bytes from the system interface side
system.mem_ctrls0.bytesWrittenSys              484736                       # Total written bytes from the system interface side
system.mem_ctrls0.servicedByWrQ                   288                       # Number of DRAM read bursts serviced by the write queue
system.mem_ctrls0.mergedWrBursts                   70                       # Number of DRAM write bursts merged with an existing one
system.mem_ctrls0.neitherReadNorWriteReqs            0                       # Number of requests that are neither read nor write
system.mem_ctrls0.perBankRdBursts::0              370                       # Per bank write bursts
system.mem_ctrls0.perBankRdBursts::1              355                       # Per bank write bursts
system.mem_ctrls0.perBankRdBursts::2              442                       # Per bank write bursts
system.mem_ctrls0.perBankRdBursts::3              394                       # Per bank write bursts
system.mem_ctrls0.perBankRdBursts::4              338                       # Per bank write bursts
system.mem_ctrls0.perBankRdBursts::5              256                       # Per bank write bursts
system.mem_ctrls0.perBankRdBursts::6              179                       # Per bank write bursts
system.mem_ctrls0.perBankRdBursts::7              157                       # Per bank write bursts
system.mem_ctrls0.perBankRdBursts::8              239                       # Per bank write bursts
system.mem_ctrls0.perBankRdBursts::9              383                       # Per bank write bursts
system.mem_ctrls0.perBankRdBursts::10             406                       # Per bank write bursts
system.mem_ctrls0.perBankRdBursts::11             368                       # Per bank write bursts
system.mem_ctrls0.perBankRdBursts::12             452                       # Per bank write bursts
system.mem_ctrls0.perBankRdBursts::13             294                       # Per bank write bursts
system.mem_ctrls0.perBankRdBursts::14             393                       # Per bank write bursts
system.mem_ctrls0.perBankRdBursts::15             335                       # Per bank write bursts
system.mem_ctrls0.perBankWrBursts::0              510                       # Per bank write bursts
system.mem_ctrls0.perBankWrBursts::1              499                       # Per bank write bursts
system.mem_ctrls0.perBankWrBursts::2              455                       # Per bank write bursts
system.mem_ctrls0.perBankWrBursts::3              357                       # Per bank write bursts
system.mem_ctrls0.perBankWrBursts::4              249                       # Per bank write bursts
system.mem_ctrls0.perBankWrBursts::5              327                       # Per bank write bursts
system.mem_ctrls0.perBankWrBursts::6              353                       # Per bank write bursts
system.mem_ctrls0.perBankWrBursts::7              483                       # Per bank write bursts
system.mem_ctrls0.perBankWrBursts::8              648                       # Per bank write bursts
system.mem_ctrls0.perBankWrBursts::9              644                       # Per bank write bursts
system.mem_ctrls0.perBankWrBursts::10             569                       # Per bank write bursts
system.mem_ctrls0.perBankWrBursts::11             588                       # Per bank write bursts
system.mem_ctrls0.perBankWrBursts::12             534                       # Per bank write bursts
system.mem_ctrls0.perBankWrBursts::13             375                       # Per bank write bursts
system.mem_ctrls0.perBankWrBursts::14             444                       # Per bank write bursts
system.mem_ctrls0.perBankWrBursts::15             474                       # Per bank write bursts
system.mem_ctrls0.numRdRetry                        0                       # Number of times read queue was full causing retry
system.mem_ctrls0.numWrRetry                       26                       # Number of times write queue was full causing retry
system.mem_ctrls0.totGap                 284023193000                       # Total gap between requests
system.mem_ctrls0.readPktSize::0                    0                       # Read request sizes (log2)
system.mem_ctrls0.readPktSize::1                    0                       # Read request sizes (log2)
system.mem_ctrls0.readPktSize::2                    0                       # Read request sizes (log2)
system.mem_ctrls0.readPktSize::3                    0                       # Read request sizes (log2)
system.mem_ctrls0.readPktSize::4                    0                       # Read request sizes (log2)
system.mem_ctrls0.readPktSize::5                    0                       # Read request sizes (log2)
system.mem_ctrls0.readPktSize::6                 5649                       # Read request sizes (log2)
system.mem_ctrls0.writePktSize::0                   0                       # Write request sizes (log2)
system.mem_ctrls0.writePktSize::1                   0                       # Write request sizes (log2)
system.mem_ctrls0.writePktSize::2                   0                       # Write request sizes (log2)
system.mem_ctrls0.writePktSize::3                   0                       # Write request sizes (log2)
system.mem_ctrls0.writePktSize::4                   0                       # Write request sizes (log2)
system.mem_ctrls0.writePktSize::5                   0                       # Write request sizes (log2)
system.mem_ctrls0.writePktSize::6                7574                       # Write request sizes (log2)
system.mem_ctrls0.rdQLenPdf::0                   5361                       # What read queue length does an incoming req see
system.mem_ctrls0.rdQLenPdf::1                      0                       # What read queue length does an incoming req see
system.mem_ctrls0.rdQLenPdf::2                      0                       # What read queue length does an incoming req see
system.mem_ctrls0.rdQLenPdf::3                      0                       # What read queue length does an incoming req see
system.mem_ctrls0.rdQLenPdf::4                      0                       # What read queue length does an incoming req see
system.mem_ctrls0.rdQLenPdf::5                      0                       # What read queue length does an incoming req see
system.mem_ctrls0.rdQLenPdf::6                      0                       # What read queue length does an incoming req see
system.mem_ctrls0.rdQLenPdf::7                      0                       # What read queue length does an incoming req see
system.mem_ctrls0.rdQLenPdf::8                      0                       # What read queue length does an incoming req see
system.mem_ctrls0.rdQLenPdf::9                      0                       # What read queue length does an incoming req see
system.mem_ctrls0.rdQLenPdf::10                     0                       # What read queue length does an incoming req see
system.mem_ctrls0.rdQLenPdf::11                     0                       # What read queue length does an incoming req see
system.mem_ctrls0.rdQLenPdf::12                     0                       # What read queue length does an incoming req see
system.mem_ctrls0.rdQLenPdf::13                     0                       # What read queue length does an incoming req see
system.mem_ctrls0.rdQLenPdf::14                     0                       # What read queue length does an incoming req see
system.mem_ctrls0.rdQLenPdf::15                     0                       # What read queue length does an incoming req see
system.mem_ctrls0.rdQLenPdf::16                     0                       # What read queue length does an incoming req see
system.mem_ctrls0.rdQLenPdf::17                     0                       # What read queue length does an incoming req see
system.mem_ctrls0.rdQLenPdf::18                     0                       # What read queue length does an incoming req see
system.mem_ctrls0.rdQLenPdf::19                     0                       # What read queue length does an incoming req see
system.mem_ctrls0.rdQLenPdf::20                     0                       # What read queue length does an incoming req see
system.mem_ctrls0.rdQLenPdf::21                     0                       # What read queue length does an incoming req see
system.mem_ctrls0.rdQLenPdf::22                     0                       # What read queue length does an incoming req see
system.mem_ctrls0.rdQLenPdf::23                     0                       # What read queue length does an incoming req see
system.mem_ctrls0.rdQLenPdf::24                     0                       # What read queue length does an incoming req see
system.mem_ctrls0.rdQLenPdf::25                     0                       # What read queue length does an incoming req see
system.mem_ctrls0.rdQLenPdf::26                     0                       # What read queue length does an incoming req see
system.mem_ctrls0.rdQLenPdf::27                     0                       # What read queue length does an incoming req see
system.mem_ctrls0.rdQLenPdf::28                     0                       # What read queue length does an incoming req see
system.mem_ctrls0.rdQLenPdf::29                     0                       # What read queue length does an incoming req see
system.mem_ctrls0.rdQLenPdf::30                     0                       # What read queue length does an incoming req see
system.mem_ctrls0.rdQLenPdf::31                     0                       # What read queue length does an incoming req see
system.mem_ctrls0.wrQLenPdf::0                      0                       # What write queue length does an incoming req see
system.mem_ctrls0.wrQLenPdf::1                      0                       # What write queue length does an incoming req see
system.mem_ctrls0.wrQLenPdf::2                      0                       # What write queue length does an incoming req see
system.mem_ctrls0.wrQLenPdf::3                      0                       # What write queue length does an incoming req see
system.mem_ctrls0.wrQLenPdf::4                      0                       # What write queue length does an incoming req see
system.mem_ctrls0.wrQLenPdf::5                      0                       # What write queue length does an incoming req see
system.mem_ctrls0.wrQLenPdf::6                      0                       # What write queue length does an incoming req see
system.mem_ctrls0.wrQLenPdf::7                      0                       # What write queue length does an incoming req see
system.mem_ctrls0.wrQLenPdf::8                      0                       # What write queue length does an incoming req see
system.mem_ctrls0.wrQLenPdf::9                      0                       # What write queue length does an incoming req see
system.mem_ctrls0.wrQLenPdf::10                     0                       # What write queue length does an incoming req see
system.mem_ctrls0.wrQLenPdf::11                     0                       # What write queue length does an incoming req see
system.mem_ctrls0.wrQLenPdf::12                     0                       # What write queue length does an incoming req see
system.mem_ctrls0.wrQLenPdf::13                     0                       # What write queue length does an incoming req see
system.mem_ctrls0.wrQLenPdf::14                     0                       # What write queue length does an incoming req see
system.mem_ctrls0.wrQLenPdf::15                    98                       # What write queue length does an incoming req see
system.mem_ctrls0.wrQLenPdf::16                   143                       # What write queue length does an incoming req see
system.mem_ctrls0.wrQLenPdf::17                   380                       # What write queue length does an incoming req see
system.mem_ctrls0.wrQLenPdf::18                   406                       # What write queue length does an incoming req see
system.mem_ctrls0.wrQLenPdf::19                   407                       # What write queue length does an incoming req see
system.mem_ctrls0.wrQLenPdf::20                   401                       # What write queue length does an incoming req see
system.mem_ctrls0.wrQLenPdf::21                   416                       # What write queue length does an incoming req see
system.mem_ctrls0.wrQLenPdf::22                   420                       # What write queue length does an incoming req see
system.mem_ctrls0.wrQLenPdf::23                   423                       # What write queue length does an incoming req see
system.mem_ctrls0.wrQLenPdf::24                   439                       # What write queue length does an incoming req see
system.mem_ctrls0.wrQLenPdf::25                   452                       # What write queue length does an incoming req see
system.mem_ctrls0.wrQLenPdf::26                   417                       # What write queue length does an incoming req see
system.mem_ctrls0.wrQLenPdf::27                   418                       # What write queue length does an incoming req see
system.mem_ctrls0.wrQLenPdf::28                   412                       # What write queue length does an incoming req see
system.mem_ctrls0.wrQLenPdf::29                   391                       # What write queue length does an incoming req see
system.mem_ctrls0.wrQLenPdf::30                   384                       # What write queue length does an incoming req see
system.mem_ctrls0.wrQLenPdf::31                   378                       # What write queue length does an incoming req see
system.mem_ctrls0.wrQLenPdf::32                   384                       # What write queue length does an incoming req see
system.mem_ctrls0.wrQLenPdf::33                    46                       # What write queue length does an incoming req see
system.mem_ctrls0.wrQLenPdf::34                    44                       # What write queue length does an incoming req see
system.mem_ctrls0.wrQLenPdf::35                    39                       # What write queue length does an incoming req see
system.mem_ctrls0.wrQLenPdf::36                    31                       # What write queue length does an incoming req see
system.mem_ctrls0.wrQLenPdf::37                    28                       # What write queue length does an incoming req see
system.mem_ctrls0.wrQLenPdf::38                    26                       # What write queue length does an incoming req see
system.mem_ctrls0.wrQLenPdf::39                    24                       # What write queue length does an incoming req see
system.mem_ctrls0.wrQLenPdf::40                    24                       # What write queue length does an incoming req see
system.mem_ctrls0.wrQLenPdf::41                    25                       # What write queue length does an incoming req see
system.mem_ctrls0.wrQLenPdf::42                    22                       # What write queue length does an incoming req see
system.mem_ctrls0.wrQLenPdf::43                    22                       # What write queue length does an incoming req see
system.mem_ctrls0.wrQLenPdf::44                    22                       # What write queue length does an incoming req see
system.mem_ctrls0.wrQLenPdf::45                    21                       # What write queue length does an incoming req see
system.mem_ctrls0.wrQLenPdf::46                    19                       # What write queue length does an incoming req see
system.mem_ctrls0.wrQLenPdf::47                    20                       # What write queue length does an incoming req see
system.mem_ctrls0.wrQLenPdf::48                    19                       # What write queue length does an incoming req see
system.mem_ctrls0.wrQLenPdf::49                    22                       # What write queue length does an incoming req see
system.mem_ctrls0.wrQLenPdf::50                    22                       # What write queue length does an incoming req see
system.mem_ctrls0.wrQLenPdf::51                    22                       # What write queue length does an incoming req see
system.mem_ctrls0.wrQLenPdf::52                    20                       # What write queue length does an incoming req see
system.mem_ctrls0.wrQLenPdf::53                    22                       # What write queue length does an incoming req see
system.mem_ctrls0.wrQLenPdf::54                    18                       # What write queue length does an incoming req see
system.mem_ctrls0.wrQLenPdf::55                    23                       # What write queue length does an incoming req see
system.mem_ctrls0.wrQLenPdf::56                    21                       # What write queue length does an incoming req see
system.mem_ctrls0.wrQLenPdf::57                    23                       # What write queue length does an incoming req see
system.mem_ctrls0.wrQLenPdf::58                    16                       # What write queue length does an incoming req see
system.mem_ctrls0.wrQLenPdf::59                    14                       # What write queue length does an incoming req see
system.mem_ctrls0.wrQLenPdf::60                    10                       # What write queue length does an incoming req see
system.mem_ctrls0.wrQLenPdf::61                    12                       # What write queue length does an incoming req see
system.mem_ctrls0.wrQLenPdf::62                    16                       # What write queue length does an incoming req see
system.mem_ctrls0.wrQLenPdf::63                    42                       # What write queue length does an incoming req see
system.mem_ctrls0.bytesPerActivate::samples         3312                       # Bytes accessed per row activation
system.mem_ctrls0.bytesPerActivate::mean   248.695652                       # Bytes accessed per row activation
system.mem_ctrls0.bytesPerActivate::gmean   165.397904                       # Bytes accessed per row activation
system.mem_ctrls0.bytesPerActivate::stdev   247.445994                       # Bytes accessed per row activation
system.mem_ctrls0.bytesPerActivate::0-127         1194     36.05%     36.05% # Bytes accessed per row activation
system.mem_ctrls0.bytesPerActivate::128-255          868     26.21%     62.26% # Bytes accessed per row activation
system.mem_ctrls0.bytesPerActivate::256-383          466     14.07%     76.33% # Bytes accessed per row activation
system.mem_ctrls0.bytesPerActivate::384-511          329      9.93%     86.26% # Bytes accessed per row activation
system.mem_ctrls0.bytesPerActivate::512-639          184      5.56%     91.82% # Bytes accessed per row activation
system.mem_ctrls0.bytesPerActivate::640-767           54      1.63%     93.45% # Bytes accessed per row activation
system.mem_ctrls0.bytesPerActivate::768-895           30      0.91%     94.35% # Bytes accessed per row activation
system.mem_ctrls0.bytesPerActivate::896-1023           25      0.75%     95.11% # Bytes accessed per row activation
system.mem_ctrls0.bytesPerActivate::1024-1151          162      4.89%    100.00% # Bytes accessed per row activation
system.mem_ctrls0.bytesPerActivate::total         3312                       # Bytes accessed per row activation
system.mem_ctrls0.rdPerTurnAround::samples          355                       # Reads before turning the bus around for writes
system.mem_ctrls0.rdPerTurnAround::mean     15.129577                       # Reads before turning the bus around for writes
system.mem_ctrls0.rdPerTurnAround::stdev    11.709048                       # Reads before turning the bus around for writes
system.mem_ctrls0.rdPerTurnAround::0-3             74     20.85%     20.85% # Reads before turning the bus around for writes
system.mem_ctrls0.rdPerTurnAround::4-7             15      4.23%     25.07% # Reads before turning the bus around for writes
system.mem_ctrls0.rdPerTurnAround::8-11            20      5.63%     30.70% # Reads before turning the bus around for writes
system.mem_ctrls0.rdPerTurnAround::12-15           15      4.23%     34.93% # Reads before turning the bus around for writes
system.mem_ctrls0.rdPerTurnAround::16-19          158     44.51%     79.44% # Reads before turning the bus around for writes
system.mem_ctrls0.rdPerTurnAround::20-23           38     10.70%     90.14% # Reads before turning the bus around for writes
system.mem_ctrls0.rdPerTurnAround::24-27           11      3.10%     93.24% # Reads before turning the bus around for writes
system.mem_ctrls0.rdPerTurnAround::28-31            6      1.69%     94.93% # Reads before turning the bus around for writes
system.mem_ctrls0.rdPerTurnAround::32-35            4      1.13%     96.06% # Reads before turning the bus around for writes
system.mem_ctrls0.rdPerTurnAround::36-39            2      0.56%     96.62% # Reads before turning the bus around for writes
system.mem_ctrls0.rdPerTurnAround::40-43            5      1.41%     98.03% # Reads before turning the bus around for writes
system.mem_ctrls0.rdPerTurnAround::52-55            1      0.28%     98.31% # Reads before turning the bus around for writes
system.mem_ctrls0.rdPerTurnAround::56-59            3      0.85%     99.15% # Reads before turning the bus around for writes
system.mem_ctrls0.rdPerTurnAround::72-75            1      0.28%     99.44% # Reads before turning the bus around for writes
system.mem_ctrls0.rdPerTurnAround::80-83            1      0.28%     99.72% # Reads before turning the bus around for writes
system.mem_ctrls0.rdPerTurnAround::92-95            1      0.28%    100.00% # Reads before turning the bus around for writes
system.mem_ctrls0.rdPerTurnAround::total          355                       # Reads before turning the bus around for writes
system.mem_ctrls0.wrPerTurnAround::samples          355                       # Writes before turning the bus around for reads
system.mem_ctrls0.wrPerTurnAround::mean     21.152113                       # Writes before turning the bus around for reads
system.mem_ctrls0.wrPerTurnAround::gmean    19.493373                       # Writes before turning the bus around for reads
system.mem_ctrls0.wrPerTurnAround::stdev    10.683662                       # Writes before turning the bus around for reads
system.mem_ctrls0.wrPerTurnAround::16-17          247     69.58%     69.58% # Writes before turning the bus around for reads
system.mem_ctrls0.wrPerTurnAround::18-19           19      5.35%     74.93% # Writes before turning the bus around for reads
system.mem_ctrls0.wrPerTurnAround::20-21            6      1.69%     76.62% # Writes before turning the bus around for reads
system.mem_ctrls0.wrPerTurnAround::22-23            4      1.13%     77.75% # Writes before turning the bus around for reads
system.mem_ctrls0.wrPerTurnAround::24-25            6      1.69%     79.44% # Writes before turning the bus around for reads
system.mem_ctrls0.wrPerTurnAround::26-27            9      2.54%     81.97% # Writes before turning the bus around for reads
system.mem_ctrls0.wrPerTurnAround::28-29            5      1.41%     83.38% # Writes before turning the bus around for reads
system.mem_ctrls0.wrPerTurnAround::30-31           13      3.66%     87.04% # Writes before turning the bus around for reads
system.mem_ctrls0.wrPerTurnAround::32-33            7      1.97%     89.01% # Writes before turning the bus around for reads
system.mem_ctrls0.wrPerTurnAround::34-35            5      1.41%     90.42% # Writes before turning the bus around for reads
system.mem_ctrls0.wrPerTurnAround::36-37            2      0.56%     90.99% # Writes before turning the bus around for reads
system.mem_ctrls0.wrPerTurnAround::38-39            3      0.85%     91.83% # Writes before turning the bus around for reads
system.mem_ctrls0.wrPerTurnAround::40-41            2      0.56%     92.39% # Writes before turning the bus around for reads
system.mem_ctrls0.wrPerTurnAround::42-43            3      0.85%     93.24% # Writes before turning the bus around for reads
system.mem_ctrls0.wrPerTurnAround::44-45            4      1.13%     94.37% # Writes before turning the bus around for reads
system.mem_ctrls0.wrPerTurnAround::46-47            2      0.56%     94.93% # Writes before turning the bus around for reads
system.mem_ctrls0.wrPerTurnAround::48-49            7      1.97%     96.90% # Writes before turning the bus around for reads
system.mem_ctrls0.wrPerTurnAround::50-51            2      0.56%     97.46% # Writes before turning the bus around for reads
system.mem_ctrls0.wrPerTurnAround::52-53            3      0.85%     98.31% # Writes before turning the bus around for reads
system.mem_ctrls0.wrPerTurnAround::56-57            1      0.28%     98.59% # Writes before turning the bus around for reads
system.mem_ctrls0.wrPerTurnAround::66-67            1      0.28%     98.87% # Writes before turning the bus around for reads
system.mem_ctrls0.wrPerTurnAround::68-69            2      0.56%     99.44% # Writes before turning the bus around for reads
system.mem_ctrls0.wrPerTurnAround::70-71            1      0.28%     99.72% # Writes before turning the bus around for reads
system.mem_ctrls0.wrPerTurnAround::76-77            1      0.28%    100.00% # Writes before turning the bus around for reads
system.mem_ctrls0.wrPerTurnAround::total          355                       # Writes before turning the bus around for reads
system.mem_ctrls0.totQLat                   476169750                       # Total ticks spent queuing
system.mem_ctrls0.totMemAccLat              576688500                       # Total ticks spent from burst creation until serviced by the DRAM
system.mem_ctrls0.totBusLat                  26805000                       # Total ticks spent in databus transfers
system.mem_ctrls0.avgQLat                    88821.07                       # Average queueing delay per DRAM burst
system.mem_ctrls0.avgBusLat                   5000.00                       # Average bus latency per DRAM burst
system.mem_ctrls0.avgMemAccLat              107571.07                       # Average memory access latency per DRAM burst
system.mem_ctrls0.avgRdBW                        1.09                       # Average DRAM read bandwidth in MiByte/s
system.mem_ctrls0.avgWrBW                        1.53                       # Average achieved write bandwidth in MiByte/s
system.mem_ctrls0.avgRdBWSys                     1.15                       # Average system read bandwidth in MiByte/s
system.mem_ctrls0.avgWrBWSys                     1.54                       # Average system write bandwidth in MiByte/s
system.mem_ctrls0.peakBW                     12800.00                       # Theoretical peak bandwidth in MiByte/s
system.mem_ctrls0.busUtil                        0.02                       # Data bus utilization in percentage
system.mem_ctrls0.busUtilRead                    0.01                       # Data bus utilization in percentage for reads
system.mem_ctrls0.busUtilWrite                   0.01                       # Data bus utilization in percentage for writes
system.mem_ctrls0.avgRdQLen                      1.00                       # Average read queue length when enqueuing
system.mem_ctrls0.avgWrQLen                     23.96                       # Average write queue length when enqueuing
system.mem_ctrls0.readRowHits                    3642                       # Number of row buffer hits during reads
system.mem_ctrls0.writeRowHits                   5916                       # Number of row buffer hits during writes
system.mem_ctrls0.readRowHitRate                67.94                       # Row buffer hit rate for reads
system.mem_ctrls0.writeRowHitRate               78.84                       # Row buffer hit rate for writes
system.mem_ctrls0.avgGap                  21479482.19                       # Average gap between requests
system.mem_ctrls0.pageHitRate                   74.29                       # Row buffer hit rate, read and write combined
system.mem_ctrls0_0.actEnergy                50029980                       # Energy for activate commands per rank (pJ)
system.mem_ctrls0_0.preEnergy                26591565                       # Energy for precharge commands per rank (pJ)
system.mem_ctrls0_0.readEnergy              139230000                       # Energy for read commands per rank (pJ)
system.mem_ctrls0_0.writeEnergy              39541500                       # Energy for write commands per rank (pJ)
system.mem_ctrls0_0.refreshEnergy        5663292960.000001                       # Energy for refresh commands per rank (pJ)
system.mem_ctrls0_0.actBackEnergy          1710282150                       # Energy for active background per rank (pJ)
system.mem_ctrls0_0.preBackEnergy           328192800                       # Energy for precharge background per rank (pJ)
system.mem_ctrls0_0.actPowerDownEnergy    13552111380                       # Energy for active power-down per rank (pJ)
system.mem_ctrls0_0.prePowerDownEnergy     8141635680                       # Energy for precharge power-down per rank (pJ)
system.mem_ctrls0_0.selfRefreshEnergy    1315606564665                       # Energy for self refresh per rank (pJ)
system.mem_ctrls0_0.totalEnergy          1345259364480                       # Total energy per rank (pJ)
system.mem_ctrls0_0.averagePower           243.174553                       # Core power per rank (mW)
system.mem_ctrls0_0.totalIdleTime        282877390250                       # Total Idle time Per DRAM Rank
system.mem_ctrls0_0.memoryStateTime::IDLE    145201250                       # Time in different power states
system.mem_ctrls0_0.memoryStateTime::REF    439796000                       # Time in different power states
system.mem_ctrls0_0.memoryStateTime::SREF 305348603250                       # Time in different power states
system.mem_ctrls0_0.memoryStateTime::PRE_PDN   4048626750                       # Time in different power states
system.mem_ctrls0_0.memoryStateTime::ACT    550330250                       # Time in different power states
system.mem_ctrls0_0.memoryStateTime::ACT_PDN   4627619000                       # Time in different power states
system.mem_ctrls0_1.actEnergy                44703540                       # Energy for activate commands per rank (pJ)
system.mem_ctrls0_1.preEnergy                23760495                       # Energy for precharge commands per rank (pJ)
system.mem_ctrls0_1.readEnergy              139815480                       # Energy for read commands per rank (pJ)
system.mem_ctrls0_1.writeEnergy              41410260                       # Energy for write commands per rank (pJ)
system.mem_ctrls0_1.refreshEnergy        4850738880.000001                       # Energy for refresh commands per rank (pJ)
system.mem_ctrls0_1.actBackEnergy          1658731920                       # Energy for active background per rank (pJ)
system.mem_ctrls0_1.preBackEnergy           271166400                       # Energy for precharge background per rank (pJ)
system.mem_ctrls0_1.actPowerDownEnergy    12293086260                       # Energy for active power-down per rank (pJ)
system.mem_ctrls0_1.prePowerDownEnergy     6572840640                       # Energy for precharge power-down per rank (pJ)
system.mem_ctrls0_1.selfRefreshEnergy    1317069579525                       # Energy for self refresh per rank (pJ)
system.mem_ctrls0_1.totalEnergy          1342966553640                       # Total energy per rank (pJ)
system.mem_ctrls0_1.averagePower           242.760095                       # Core power per rank (mW)
system.mem_ctrls0_1.totalIdleTime        285129402250                       # Total Idle time Per DRAM Rank
system.mem_ctrls0_1.memoryStateTime::IDLE    139793000                       # Time in different power states
system.mem_ctrls0_1.memoryStateTime::REF    443944000                       # Time in different power states
system.mem_ctrls0_1.memoryStateTime::SREF 307620212250                       # Time in different power states
system.mem_ctrls0_1.memoryStateTime::PRE_PDN   3959629750                       # Time in different power states
system.mem_ctrls0_1.memoryStateTime::ACT    705715750                       # Time in different power states
system.mem_ctrls0_1.memoryStateTime::ACT_PDN   4694321000                       # Time in different power states
system.mem_ctrls1.pwrStateResidencyTicks::UNDEFINED 5532072946500                       # Cumulative time (in ticks) in various power states
system.mem_ctrls1.bytes_read::ruby.dir_cntrl1       351104                       # Number of bytes read from this memory
system.mem_ctrls1.bytes_read::total            351104                       # Number of bytes read from this memory
system.mem_ctrls1.bytes_written::ruby.dir_cntrl1       484928                       # Number of bytes written to this memory
system.mem_ctrls1.bytes_written::total         484928                       # Number of bytes written to this memory
system.mem_ctrls1.num_reads::ruby.dir_cntrl1         5486                       # Number of read requests responded to by this memory
system.mem_ctrls1.num_reads::total               5486                       # Number of read requests responded to by this memory
system.mem_ctrls1.num_writes::ruby.dir_cntrl1         7577                       # Number of write requests responded to by this memory
system.mem_ctrls1.num_writes::total              7577                       # Number of write requests responded to by this memory
system.mem_ctrls1.bw_read::ruby.dir_cntrl1      1117265                       # Total read bandwidth from this memory (bytes/s)
system.mem_ctrls1.bw_read::total              1117265                       # Total read bandwidth from this memory (bytes/s)
system.mem_ctrls1.bw_write::ruby.dir_cntrl1      1543113                       # Write bandwidth from this memory (bytes/s)
system.mem_ctrls1.bw_write::total             1543113                       # Write bandwidth from this memory (bytes/s)
system.mem_ctrls1.bw_total::ruby.dir_cntrl1      2660378                       # Total bandwidth to/from this memory (bytes/s)
system.mem_ctrls1.bw_total::total             2660378                       # Total bandwidth to/from this memory (bytes/s)
system.mem_ctrls1.readReqs                       5486                       # Number of read requests accepted
system.mem_ctrls1.writeReqs                      7577                       # Number of write requests accepted
system.mem_ctrls1.readBursts                     5486                       # Number of DRAM read bursts, including those serviced by the write queue
system.mem_ctrls1.writeBursts                    7577                       # Number of DRAM write bursts, including those merged in the write queue
system.mem_ctrls1.bytesReadDRAM                338624                       # Total number of bytes read from DRAM
system.mem_ctrls1.bytesReadWrQ                  12480                       # Total number of bytes read from write queue
system.mem_ctrls1.bytesWritten                 485504                       # Total number of bytes written to DRAM
system.mem_ctrls1.bytesReadSys                 351104                       # Total read bytes from the system interface side
system.mem_ctrls1.bytesWrittenSys              484928                       # Total written bytes from the system interface side
system.mem_ctrls1.servicedByWrQ                   195                       # Number of DRAM read bursts serviced by the write queue
system.mem_ctrls1.mergedWrBursts                    0                       # Number of DRAM write bursts merged with an existing one
system.mem_ctrls1.neitherReadNorWriteReqs            0                       # Number of requests that are neither read nor write
system.mem_ctrls1.perBankRdBursts::0              375                       # Per bank write bursts
system.mem_ctrls1.perBankRdBursts::1              356                       # Per bank write bursts
system.mem_ctrls1.perBankRdBursts::2              347                       # Per bank write bursts
system.mem_ctrls1.perBankRdBursts::3              391                       # Per bank write bursts
system.mem_ctrls1.perBankRdBursts::4              339                       # Per bank write bursts
system.mem_ctrls1.perBankRdBursts::5              255                       # Per bank write bursts
system.mem_ctrls1.perBankRdBursts::6              183                       # Per bank write bursts
system.mem_ctrls1.perBankRdBursts::7              158                       # Per bank write bursts
system.mem_ctrls1.perBankRdBursts::8              236                       # Per bank write bursts
system.mem_ctrls1.perBankRdBursts::9              371                       # Per bank write bursts
system.mem_ctrls1.perBankRdBursts::10             413                       # Per bank write bursts
system.mem_ctrls1.perBankRdBursts::11             366                       # Per bank write bursts
system.mem_ctrls1.perBankRdBursts::12             456                       # Per bank write bursts
system.mem_ctrls1.perBankRdBursts::13             305                       # Per bank write bursts
system.mem_ctrls1.perBankRdBursts::14             393                       # Per bank write bursts
system.mem_ctrls1.perBankRdBursts::15             347                       # Per bank write bursts
system.mem_ctrls1.perBankWrBursts::0              506                       # Per bank write bursts
system.mem_ctrls1.perBankWrBursts::1              509                       # Per bank write bursts
system.mem_ctrls1.perBankWrBursts::2              394                       # Per bank write bursts
system.mem_ctrls1.perBankWrBursts::3              382                       # Per bank write bursts
system.mem_ctrls1.perBankWrBursts::4              259                       # Per bank write bursts
system.mem_ctrls1.perBankWrBursts::5              356                       # Per bank write bursts
system.mem_ctrls1.perBankWrBursts::6              386                       # Per bank write bursts
system.mem_ctrls1.perBankWrBursts::7              486                       # Per bank write bursts
system.mem_ctrls1.perBankWrBursts::8              652                       # Per bank write bursts
system.mem_ctrls1.perBankWrBursts::9              637                       # Per bank write bursts
system.mem_ctrls1.perBankWrBursts::10             604                       # Per bank write bursts
system.mem_ctrls1.perBankWrBursts::11             583                       # Per bank write bursts
system.mem_ctrls1.perBankWrBursts::12             534                       # Per bank write bursts
system.mem_ctrls1.perBankWrBursts::13             378                       # Per bank write bursts
system.mem_ctrls1.perBankWrBursts::14             445                       # Per bank write bursts
system.mem_ctrls1.perBankWrBursts::15             475                       # Per bank write bursts
system.mem_ctrls1.numRdRetry                        0                       # Number of times read queue was full causing retry
system.mem_ctrls1.numWrRetry                       39                       # Number of times write queue was full causing retry
system.mem_ctrls1.totGap                 286417018500                       # Total gap between requests
system.mem_ctrls1.readPktSize::0                    0                       # Read request sizes (log2)
system.mem_ctrls1.readPktSize::1                    0                       # Read request sizes (log2)
system.mem_ctrls1.readPktSize::2                    0                       # Read request sizes (log2)
system.mem_ctrls1.readPktSize::3                    0                       # Read request sizes (log2)
system.mem_ctrls1.readPktSize::4                    0                       # Read request sizes (log2)
system.mem_ctrls1.readPktSize::5                    0                       # Read request sizes (log2)
system.mem_ctrls1.readPktSize::6                 5486                       # Read request sizes (log2)
system.mem_ctrls1.writePktSize::0                   0                       # Write request sizes (log2)
system.mem_ctrls1.writePktSize::1                   0                       # Write request sizes (log2)
system.mem_ctrls1.writePktSize::2                   0                       # Write request sizes (log2)
system.mem_ctrls1.writePktSize::3                   0                       # Write request sizes (log2)
system.mem_ctrls1.writePktSize::4                   0                       # Write request sizes (log2)
system.mem_ctrls1.writePktSize::5                   0                       # Write request sizes (log2)
system.mem_ctrls1.writePktSize::6                7577                       # Write request sizes (log2)
system.mem_ctrls1.rdQLenPdf::0                   5291                       # What read queue length does an incoming req see
system.mem_ctrls1.rdQLenPdf::1                      0                       # What read queue length does an incoming req see
system.mem_ctrls1.rdQLenPdf::2                      0                       # What read queue length does an incoming req see
system.mem_ctrls1.rdQLenPdf::3                      0                       # What read queue length does an incoming req see
system.mem_ctrls1.rdQLenPdf::4                      0                       # What read queue length does an incoming req see
system.mem_ctrls1.rdQLenPdf::5                      0                       # What read queue length does an incoming req see
system.mem_ctrls1.rdQLenPdf::6                      0                       # What read queue length does an incoming req see
system.mem_ctrls1.rdQLenPdf::7                      0                       # What read queue length does an incoming req see
system.mem_ctrls1.rdQLenPdf::8                      0                       # What read queue length does an incoming req see
system.mem_ctrls1.rdQLenPdf::9                      0                       # What read queue length does an incoming req see
system.mem_ctrls1.rdQLenPdf::10                     0                       # What read queue length does an incoming req see
system.mem_ctrls1.rdQLenPdf::11                     0                       # What read queue length does an incoming req see
system.mem_ctrls1.rdQLenPdf::12                     0                       # What read queue length does an incoming req see
system.mem_ctrls1.rdQLenPdf::13                     0                       # What read queue length does an incoming req see
system.mem_ctrls1.rdQLenPdf::14                     0                       # What read queue length does an incoming req see
system.mem_ctrls1.rdQLenPdf::15                     0                       # What read queue length does an incoming req see
system.mem_ctrls1.rdQLenPdf::16                     0                       # What read queue length does an incoming req see
system.mem_ctrls1.rdQLenPdf::17                     0                       # What read queue length does an incoming req see
system.mem_ctrls1.rdQLenPdf::18                     0                       # What read queue length does an incoming req see
system.mem_ctrls1.rdQLenPdf::19                     0                       # What read queue length does an incoming req see
system.mem_ctrls1.rdQLenPdf::20                     0                       # What read queue length does an incoming req see
system.mem_ctrls1.rdQLenPdf::21                     0                       # What read queue length does an incoming req see
system.mem_ctrls1.rdQLenPdf::22                     0                       # What read queue length does an incoming req see
system.mem_ctrls1.rdQLenPdf::23                     0                       # What read queue length does an incoming req see
system.mem_ctrls1.rdQLenPdf::24                     0                       # What read queue length does an incoming req see
system.mem_ctrls1.rdQLenPdf::25                     0                       # What read queue length does an incoming req see
system.mem_ctrls1.rdQLenPdf::26                     0                       # What read queue length does an incoming req see
system.mem_ctrls1.rdQLenPdf::27                     0                       # What read queue length does an incoming req see
system.mem_ctrls1.rdQLenPdf::28                     0                       # What read queue length does an incoming req see
system.mem_ctrls1.rdQLenPdf::29                     0                       # What read queue length does an incoming req see
system.mem_ctrls1.rdQLenPdf::30                     0                       # What read queue length does an incoming req see
system.mem_ctrls1.rdQLenPdf::31                     0                       # What read queue length does an incoming req see
system.mem_ctrls1.wrQLenPdf::0                      0                       # What write queue length does an incoming req see
system.mem_ctrls1.wrQLenPdf::1                      0                       # What write queue length does an incoming req see
system.mem_ctrls1.wrQLenPdf::2                      0                       # What write queue length does an incoming req see
system.mem_ctrls1.wrQLenPdf::3                      0                       # What write queue length does an incoming req see
system.mem_ctrls1.wrQLenPdf::4                      0                       # What write queue length does an incoming req see
system.mem_ctrls1.wrQLenPdf::5                      0                       # What write queue length does an incoming req see
system.mem_ctrls1.wrQLenPdf::6                      0                       # What write queue length does an incoming req see
system.mem_ctrls1.wrQLenPdf::7                      0                       # What write queue length does an incoming req see
system.mem_ctrls1.wrQLenPdf::8                      0                       # What write queue length does an incoming req see
system.mem_ctrls1.wrQLenPdf::9                      0                       # What write queue length does an incoming req see
system.mem_ctrls1.wrQLenPdf::10                     0                       # What write queue length does an incoming req see
system.mem_ctrls1.wrQLenPdf::11                     0                       # What write queue length does an incoming req see
system.mem_ctrls1.wrQLenPdf::12                     0                       # What write queue length does an incoming req see
system.mem_ctrls1.wrQLenPdf::13                     0                       # What write queue length does an incoming req see
system.mem_ctrls1.wrQLenPdf::14                     0                       # What write queue length does an incoming req see
system.mem_ctrls1.wrQLenPdf::15                    97                       # What write queue length does an incoming req see
system.mem_ctrls1.wrQLenPdf::16                   120                       # What write queue length does an incoming req see
system.mem_ctrls1.wrQLenPdf::17                   372                       # What write queue length does an incoming req see
system.mem_ctrls1.wrQLenPdf::18                   387                       # What write queue length does an incoming req see
system.mem_ctrls1.wrQLenPdf::19                   410                       # What write queue length does an incoming req see
system.mem_ctrls1.wrQLenPdf::20                   404                       # What write queue length does an incoming req see
system.mem_ctrls1.wrQLenPdf::21                   388                       # What write queue length does an incoming req see
system.mem_ctrls1.wrQLenPdf::22                   407                       # What write queue length does an incoming req see
system.mem_ctrls1.wrQLenPdf::23                   398                       # What write queue length does an incoming req see
system.mem_ctrls1.wrQLenPdf::24                   411                       # What write queue length does an incoming req see
system.mem_ctrls1.wrQLenPdf::25                   435                       # What write queue length does an incoming req see
system.mem_ctrls1.wrQLenPdf::26                   395                       # What write queue length does an incoming req see
system.mem_ctrls1.wrQLenPdf::27                   384                       # What write queue length does an incoming req see
system.mem_ctrls1.wrQLenPdf::28                   378                       # What write queue length does an incoming req see
system.mem_ctrls1.wrQLenPdf::29                   384                       # What write queue length does an incoming req see
system.mem_ctrls1.wrQLenPdf::30                   379                       # What write queue length does an incoming req see
system.mem_ctrls1.wrQLenPdf::31                   367                       # What write queue length does an incoming req see
system.mem_ctrls1.wrQLenPdf::32                   361                       # What write queue length does an incoming req see
system.mem_ctrls1.wrQLenPdf::33                    48                       # What write queue length does an incoming req see
system.mem_ctrls1.wrQLenPdf::34                    46                       # What write queue length does an incoming req see
system.mem_ctrls1.wrQLenPdf::35                    47                       # What write queue length does an incoming req see
system.mem_ctrls1.wrQLenPdf::36                    43                       # What write queue length does an incoming req see
system.mem_ctrls1.wrQLenPdf::37                    40                       # What write queue length does an incoming req see
system.mem_ctrls1.wrQLenPdf::38                    42                       # What write queue length does an incoming req see
system.mem_ctrls1.wrQLenPdf::39                    40                       # What write queue length does an incoming req see
system.mem_ctrls1.wrQLenPdf::40                    38                       # What write queue length does an incoming req see
system.mem_ctrls1.wrQLenPdf::41                    46                       # What write queue length does an incoming req see
system.mem_ctrls1.wrQLenPdf::42                    47                       # What write queue length does an incoming req see
system.mem_ctrls1.wrQLenPdf::43                    41                       # What write queue length does an incoming req see
system.mem_ctrls1.wrQLenPdf::44                    35                       # What write queue length does an incoming req see
system.mem_ctrls1.wrQLenPdf::45                    36                       # What write queue length does an incoming req see
system.mem_ctrls1.wrQLenPdf::46                    36                       # What write queue length does an incoming req see
system.mem_ctrls1.wrQLenPdf::47                    37                       # What write queue length does an incoming req see
system.mem_ctrls1.wrQLenPdf::48                    36                       # What write queue length does an incoming req see
system.mem_ctrls1.wrQLenPdf::49                    30                       # What write queue length does an incoming req see
system.mem_ctrls1.wrQLenPdf::50                    28                       # What write queue length does an incoming req see
system.mem_ctrls1.wrQLenPdf::51                    30                       # What write queue length does an incoming req see
system.mem_ctrls1.wrQLenPdf::52                    28                       # What write queue length does an incoming req see
system.mem_ctrls1.wrQLenPdf::53                    28                       # What write queue length does an incoming req see
system.mem_ctrls1.wrQLenPdf::54                    29                       # What write queue length does an incoming req see
system.mem_ctrls1.wrQLenPdf::55                    29                       # What write queue length does an incoming req see
system.mem_ctrls1.wrQLenPdf::56                    30                       # What write queue length does an incoming req see
system.mem_ctrls1.wrQLenPdf::57                    34                       # What write queue length does an incoming req see
system.mem_ctrls1.wrQLenPdf::58                    24                       # What write queue length does an incoming req see
system.mem_ctrls1.wrQLenPdf::59                    22                       # What write queue length does an incoming req see
system.mem_ctrls1.wrQLenPdf::60                    22                       # What write queue length does an incoming req see
system.mem_ctrls1.wrQLenPdf::61                    20                       # What write queue length does an incoming req see
system.mem_ctrls1.wrQLenPdf::62                    24                       # What write queue length does an incoming req see
system.mem_ctrls1.wrQLenPdf::63                    64                       # What write queue length does an incoming req see
system.mem_ctrls1.bytesPerActivate::samples         3210                       # Bytes accessed per row activation
system.mem_ctrls1.bytesPerActivate::mean   256.737695                       # Bytes accessed per row activation
system.mem_ctrls1.bytesPerActivate::gmean   169.851507                       # Bytes accessed per row activation
system.mem_ctrls1.bytesPerActivate::stdev   252.355671                       # Bytes accessed per row activation
system.mem_ctrls1.bytesPerActivate::0-127         1137     35.42%     35.42% # Bytes accessed per row activation
system.mem_ctrls1.bytesPerActivate::128-255          817     25.45%     60.87% # Bytes accessed per row activation
system.mem_ctrls1.bytesPerActivate::256-383          425     13.24%     74.11% # Bytes accessed per row activation
system.mem_ctrls1.bytesPerActivate::384-511          358     11.15%     85.26% # Bytes accessed per row activation
system.mem_ctrls1.bytesPerActivate::512-639          195      6.07%     91.34% # Bytes accessed per row activation
system.mem_ctrls1.bytesPerActivate::640-767           52      1.62%     92.96% # Bytes accessed per row activation
system.mem_ctrls1.bytesPerActivate::768-895           34      1.06%     94.02% # Bytes accessed per row activation
system.mem_ctrls1.bytesPerActivate::896-1023           33      1.03%     95.05% # Bytes accessed per row activation
system.mem_ctrls1.bytesPerActivate::1024-1151          159      4.95%    100.00% # Bytes accessed per row activation
system.mem_ctrls1.bytesPerActivate::total         3210                       # Bytes accessed per row activation
system.mem_ctrls1.rdPerTurnAround::samples          356                       # Reads before turning the bus around for writes
system.mem_ctrls1.rdPerTurnAround::mean     14.901685                       # Reads before turning the bus around for writes
system.mem_ctrls1.rdPerTurnAround::stdev    10.570162                       # Reads before turning the bus around for writes
system.mem_ctrls1.rdPerTurnAround::0-3             66     18.54%     18.54% # Reads before turning the bus around for writes
system.mem_ctrls1.rdPerTurnAround::4-7             23      6.46%     25.00% # Reads before turning the bus around for writes
system.mem_ctrls1.rdPerTurnAround::8-11            15      4.21%     29.21% # Reads before turning the bus around for writes
system.mem_ctrls1.rdPerTurnAround::12-15           19      5.34%     34.55% # Reads before turning the bus around for writes
system.mem_ctrls1.rdPerTurnAround::16-19          163     45.79%     80.34% # Reads before turning the bus around for writes
system.mem_ctrls1.rdPerTurnAround::20-23           34      9.55%     89.89% # Reads before turning the bus around for writes
system.mem_ctrls1.rdPerTurnAround::24-27           14      3.93%     93.82% # Reads before turning the bus around for writes
system.mem_ctrls1.rdPerTurnAround::28-31            7      1.97%     95.79% # Reads before turning the bus around for writes
system.mem_ctrls1.rdPerTurnAround::32-35            7      1.97%     97.75% # Reads before turning the bus around for writes
system.mem_ctrls1.rdPerTurnAround::48-51            2      0.56%     98.31% # Reads before turning the bus around for writes
system.mem_ctrls1.rdPerTurnAround::52-55            2      0.56%     98.88% # Reads before turning the bus around for writes
system.mem_ctrls1.rdPerTurnAround::60-63            2      0.56%     99.44% # Reads before turning the bus around for writes
system.mem_ctrls1.rdPerTurnAround::64-67            1      0.28%     99.72% # Reads before turning the bus around for writes
system.mem_ctrls1.rdPerTurnAround::72-75            1      0.28%    100.00% # Reads before turning the bus around for writes
system.mem_ctrls1.rdPerTurnAround::total          356                       # Reads before turning the bus around for writes
system.mem_ctrls1.wrPerTurnAround::samples          356                       # Writes before turning the bus around for reads
system.mem_ctrls1.wrPerTurnAround::mean     21.308989                       # Writes before turning the bus around for reads
system.mem_ctrls1.wrPerTurnAround::gmean    19.289653                       # Writes before turning the bus around for reads
system.mem_ctrls1.wrPerTurnAround::stdev    13.102845                       # Writes before turning the bus around for reads
system.mem_ctrls1.wrPerTurnAround::16-17          258     72.47%     72.47% # Writes before turning the bus around for reads
system.mem_ctrls1.wrPerTurnAround::18-19           23      6.46%     78.93% # Writes before turning the bus around for reads
system.mem_ctrls1.wrPerTurnAround::20-21            5      1.40%     80.34% # Writes before turning the bus around for reads
system.mem_ctrls1.wrPerTurnAround::22-23            2      0.56%     80.90% # Writes before turning the bus around for reads
system.mem_ctrls1.wrPerTurnAround::24-25            2      0.56%     81.46% # Writes before turning the bus around for reads
system.mem_ctrls1.wrPerTurnAround::26-27            3      0.84%     82.30% # Writes before turning the bus around for reads
system.mem_ctrls1.wrPerTurnAround::28-29           11      3.09%     85.39% # Writes before turning the bus around for reads
system.mem_ctrls1.wrPerTurnAround::30-31            9      2.53%     87.92% # Writes before turning the bus around for reads
system.mem_ctrls1.wrPerTurnAround::32-33            3      0.84%     88.76% # Writes before turning the bus around for reads
system.mem_ctrls1.wrPerTurnAround::34-35            4      1.12%     89.89% # Writes before turning the bus around for reads
system.mem_ctrls1.wrPerTurnAround::36-37            6      1.69%     91.57% # Writes before turning the bus around for reads
system.mem_ctrls1.wrPerTurnAround::38-39            1      0.28%     91.85% # Writes before turning the bus around for reads
system.mem_ctrls1.wrPerTurnAround::40-41            4      1.12%     92.98% # Writes before turning the bus around for reads
system.mem_ctrls1.wrPerTurnAround::44-45            3      0.84%     93.82% # Writes before turning the bus around for reads
system.mem_ctrls1.wrPerTurnAround::46-47            1      0.28%     94.10% # Writes before turning the bus around for reads
system.mem_ctrls1.wrPerTurnAround::48-49            6      1.69%     95.79% # Writes before turning the bus around for reads
system.mem_ctrls1.wrPerTurnAround::50-51            4      1.12%     96.91% # Writes before turning the bus around for reads
system.mem_ctrls1.wrPerTurnAround::56-57            2      0.56%     97.47% # Writes before turning the bus around for reads
system.mem_ctrls1.wrPerTurnAround::60-61            1      0.28%     97.75% # Writes before turning the bus around for reads
system.mem_ctrls1.wrPerTurnAround::66-67            1      0.28%     98.03% # Writes before turning the bus around for reads
system.mem_ctrls1.wrPerTurnAround::70-71            1      0.28%     98.31% # Writes before turning the bus around for reads
system.mem_ctrls1.wrPerTurnAround::72-73            1      0.28%     98.60% # Writes before turning the bus around for reads
system.mem_ctrls1.wrPerTurnAround::78-79            1      0.28%     98.88% # Writes before turning the bus around for reads
system.mem_ctrls1.wrPerTurnAround::92-93            1      0.28%     99.16% # Writes before turning the bus around for reads
system.mem_ctrls1.wrPerTurnAround::96-97            1      0.28%     99.44% # Writes before turning the bus around for reads
system.mem_ctrls1.wrPerTurnAround::100-101            1      0.28%     99.72% # Writes before turning the bus around for reads
system.mem_ctrls1.wrPerTurnAround::104-105            1      0.28%    100.00% # Writes before turning the bus around for reads
system.mem_ctrls1.wrPerTurnAround::total          356                       # Writes before turning the bus around for reads
system.mem_ctrls1.totQLat                   457828250                       # Total ticks spent queuing
system.mem_ctrls1.totMemAccLat              557034500                       # Total ticks spent from burst creation until serviced by the DRAM
system.mem_ctrls1.totBusLat                  26455000                       # Total ticks spent in databus transfers
system.mem_ctrls1.avgQLat                    86529.63                       # Average queueing delay per DRAM burst
system.mem_ctrls1.avgBusLat                   5000.00                       # Average bus latency per DRAM burst
system.mem_ctrls1.avgMemAccLat              105279.63                       # Average memory access latency per DRAM burst
system.mem_ctrls1.avgRdBW                        1.08                       # Average DRAM read bandwidth in MiByte/s
system.mem_ctrls1.avgWrBW                        1.54                       # Average achieved write bandwidth in MiByte/s
system.mem_ctrls1.avgRdBWSys                     1.12                       # Average system read bandwidth in MiByte/s
system.mem_ctrls1.avgWrBWSys                     1.54                       # Average system write bandwidth in MiByte/s
system.mem_ctrls1.peakBW                     12800.00                       # Theoretical peak bandwidth in MiByte/s
system.mem_ctrls1.busUtil                        0.02                       # Data bus utilization in percentage
system.mem_ctrls1.busUtilRead                    0.01                       # Data bus utilization in percentage for reads
system.mem_ctrls1.busUtilWrite                   0.01                       # Data bus utilization in percentage for writes
system.mem_ctrls1.avgRdQLen                      1.00                       # Average read queue length when enqueuing
system.mem_ctrls1.avgWrQLen                     23.90                       # Average write queue length when enqueuing
system.mem_ctrls1.readRowHits                    3661                       # Number of row buffer hits during reads
system.mem_ctrls1.writeRowHits                   6006                       # Number of row buffer hits during writes
system.mem_ctrls1.readRowHitRate                69.19                       # Row buffer hit rate for reads
system.mem_ctrls1.writeRowHitRate               79.27                       # Row buffer hit rate for writes
system.mem_ctrls1.avgGap                  21925822.44                       # Average gap between requests
system.mem_ctrls1.pageHitRate                   75.12                       # Row buffer hit rate, read and write combined
system.mem_ctrls1_0.actEnergy                47723760                       # Energy for activate commands per rank (pJ)
system.mem_ctrls1_0.preEnergy                25365780                       # Energy for precharge commands per rank (pJ)
system.mem_ctrls1_0.readEnergy              138537420                       # Energy for read commands per rank (pJ)
system.mem_ctrls1_0.writeEnergy              39337920                       # Energy for write commands per rank (pJ)
system.mem_ctrls1_0.refreshEnergy        5443866480.000001                       # Energy for refresh commands per rank (pJ)
system.mem_ctrls1_0.actBackEnergy          1693806300                       # Energy for active background per rank (pJ)
system.mem_ctrls1_0.preBackEnergy           321574080                       # Energy for precharge background per rank (pJ)
system.mem_ctrls1_0.actPowerDownEnergy    13089806040                       # Energy for active power-down per rank (pJ)
system.mem_ctrls1_0.prePowerDownEnergy     7709630880                       # Energy for precharge power-down per rank (pJ)
system.mem_ctrls1_0.selfRefreshEnergy    1316087933820                       # Energy for self refresh per rank (pJ)
system.mem_ctrls1_0.totalEnergy          1344599375040                       # Total energy per rank (pJ)
system.mem_ctrls1_0.averagePower           243.055250                       # Core power per rank (mW)
system.mem_ctrls1_0.totalIdleTime        285516303750                       # Total Idle time Per DRAM Rank
system.mem_ctrls1_0.memoryStateTime::IDLE    142670500                       # Time in different power states
system.mem_ctrls1_0.memoryStateTime::REF    414952000                       # Time in different power states
system.mem_ctrls1_0.memoryStateTime::SREF 308551099250                       # Time in different power states
system.mem_ctrls1_0.memoryStateTime::PRE_PDN   3793330500                       # Time in different power states
system.mem_ctrls1_0.memoryStateTime::ACT    555672500                       # Time in different power states
system.mem_ctrls1_0.memoryStateTime::ACT_PDN   4317509250                       # Time in different power states
system.mem_ctrls1_1.actEnergy                44296560                       # Energy for activate commands per rank (pJ)
system.mem_ctrls1_1.preEnergy                23544180                       # Energy for precharge commands per rank (pJ)
system.mem_ctrls1_1.readEnergy              140215320                       # Energy for read commands per rank (pJ)
system.mem_ctrls1_1.writeEnergy              41598180                       # Energy for write commands per rank (pJ)
system.mem_ctrls1_1.refreshEnergy        4852582800.000001                       # Energy for refresh commands per rank (pJ)
system.mem_ctrls1_1.actBackEnergy          1663291920                       # Energy for active background per rank (pJ)
system.mem_ctrls1_1.preBackEnergy           276297600                       # Energy for precharge background per rank (pJ)
system.mem_ctrls1_1.actPowerDownEnergy    12247062750                       # Energy for active power-down per rank (pJ)
system.mem_ctrls1_1.prePowerDownEnergy     6531164160                       # Energy for precharge power-down per rank (pJ)
system.mem_ctrls1_1.selfRefreshEnergy    1317130228380                       # Energy for self refresh per rank (pJ)
system.mem_ctrls1_1.totalEnergy          1342950663270                       # Total energy per rank (pJ)
system.mem_ctrls1_1.averagePower           242.757222                       # Core power per rank (mW)
system.mem_ctrls1_1.totalIdleTime        285090540250                       # Total Idle time Per DRAM Rank
system.mem_ctrls1_1.memoryStateTime::IDLE    151718250                       # Time in different power states
system.mem_ctrls1_1.memoryStateTime::REF    451072000                       # Time in different power states
system.mem_ctrls1_1.memoryStateTime::SREF 307545288750                       # Time in different power states
system.mem_ctrls1_1.memoryStateTime::PRE_PDN   4107104750                       # Time in different power states
system.mem_ctrls1_1.memoryStateTime::ACT    716450250                       # Time in different power states
system.mem_ctrls1_1.memoryStateTime::ACT_PDN   4582282000                       # Time in different power states
system.mem_ctrls2.pwrStateResidencyTicks::UNDEFINED 5532072946500                       # Cumulative time (in ticks) in various power states
system.mem_ctrls2.bytes_read::ruby.dir_cntrl2       349120                       # Number of bytes read from this memory
system.mem_ctrls2.bytes_read::total            349120                       # Number of bytes read from this memory
system.mem_ctrls2.bytes_written::ruby.dir_cntrl2       473600                       # Number of bytes written to this memory
system.mem_ctrls2.bytes_written::total         473600                       # Number of bytes written to this memory
system.mem_ctrls2.num_reads::ruby.dir_cntrl2         5455                       # Number of read requests responded to by this memory
system.mem_ctrls2.num_reads::total               5455                       # Number of read requests responded to by this memory
system.mem_ctrls2.num_writes::ruby.dir_cntrl2         7400                       # Number of write requests responded to by this memory
system.mem_ctrls2.num_writes::total              7400                       # Number of write requests responded to by this memory
system.mem_ctrls2.bw_read::ruby.dir_cntrl2      1110952                       # Total read bandwidth from this memory (bytes/s)
system.mem_ctrls2.bw_read::total              1110952                       # Total read bandwidth from this memory (bytes/s)
system.mem_ctrls2.bw_write::ruby.dir_cntrl2      1507065                       # Write bandwidth from this memory (bytes/s)
system.mem_ctrls2.bw_write::total             1507065                       # Write bandwidth from this memory (bytes/s)
system.mem_ctrls2.bw_total::ruby.dir_cntrl2      2618017                       # Total bandwidth to/from this memory (bytes/s)
system.mem_ctrls2.bw_total::total             2618017                       # Total bandwidth to/from this memory (bytes/s)
system.mem_ctrls2.readReqs                       5455                       # Number of read requests accepted
system.mem_ctrls2.writeReqs                      7400                       # Number of write requests accepted
system.mem_ctrls2.readBursts                     5455                       # Number of DRAM read bursts, including those serviced by the write queue
system.mem_ctrls2.writeBursts                    7400                       # Number of DRAM write bursts, including those merged in the write queue
system.mem_ctrls2.bytesReadDRAM                337984                       # Total number of bytes read from DRAM
system.mem_ctrls2.bytesReadWrQ                  11136                       # Total number of bytes read from write queue
system.mem_ctrls2.bytesWritten                 473344                       # Total number of bytes written to DRAM
system.mem_ctrls2.bytesReadSys                 349120                       # Total read bytes from the system interface side
system.mem_ctrls2.bytesWrittenSys              473600                       # Total written bytes from the system interface side
system.mem_ctrls2.servicedByWrQ                   174                       # Number of DRAM read bursts serviced by the write queue
system.mem_ctrls2.mergedWrBursts                    0                       # Number of DRAM write bursts merged with an existing one
system.mem_ctrls2.neitherReadNorWriteReqs            0                       # Number of requests that are neither read nor write
system.mem_ctrls2.perBankRdBursts::0              376                       # Per bank write bursts
system.mem_ctrls2.perBankRdBursts::1              346                       # Per bank write bursts
system.mem_ctrls2.perBankRdBursts::2              341                       # Per bank write bursts
system.mem_ctrls2.perBankRdBursts::3              393                       # Per bank write bursts
system.mem_ctrls2.perBankRdBursts::4              343                       # Per bank write bursts
system.mem_ctrls2.perBankRdBursts::5              252                       # Per bank write bursts
system.mem_ctrls2.perBankRdBursts::6              181                       # Per bank write bursts
system.mem_ctrls2.perBankRdBursts::7              165                       # Per bank write bursts
system.mem_ctrls2.perBankRdBursts::8              230                       # Per bank write bursts
system.mem_ctrls2.perBankRdBursts::9              379                       # Per bank write bursts
system.mem_ctrls2.perBankRdBursts::10             413                       # Per bank write bursts
system.mem_ctrls2.perBankRdBursts::11             361                       # Per bank write bursts
system.mem_ctrls2.perBankRdBursts::12             455                       # Per bank write bursts
system.mem_ctrls2.perBankRdBursts::13             307                       # Per bank write bursts
system.mem_ctrls2.perBankRdBursts::14             392                       # Per bank write bursts
system.mem_ctrls2.perBankRdBursts::15             347                       # Per bank write bursts
system.mem_ctrls2.perBankWrBursts::0              522                       # Per bank write bursts
system.mem_ctrls2.perBankWrBursts::1              490                       # Per bank write bursts
system.mem_ctrls2.perBankWrBursts::2              386                       # Per bank write bursts
system.mem_ctrls2.perBankWrBursts::3              360                       # Per bank write bursts
system.mem_ctrls2.perBankWrBursts::4              248                       # Per bank write bursts
system.mem_ctrls2.perBankWrBursts::5              324                       # Per bank write bursts
system.mem_ctrls2.perBankWrBursts::6              343                       # Per bank write bursts
system.mem_ctrls2.perBankWrBursts::7              491                       # Per bank write bursts
system.mem_ctrls2.perBankWrBursts::8              639                       # Per bank write bursts
system.mem_ctrls2.perBankWrBursts::9              624                       # Per bank write bursts
system.mem_ctrls2.perBankWrBursts::10             578                       # Per bank write bursts
system.mem_ctrls2.perBankWrBursts::11             586                       # Per bank write bursts
system.mem_ctrls2.perBankWrBursts::12             516                       # Per bank write bursts
system.mem_ctrls2.perBankWrBursts::13             379                       # Per bank write bursts
system.mem_ctrls2.perBankWrBursts::14             440                       # Per bank write bursts
system.mem_ctrls2.perBankWrBursts::15             470                       # Per bank write bursts
system.mem_ctrls2.numRdRetry                        0                       # Number of times read queue was full causing retry
system.mem_ctrls2.numWrRetry                       43                       # Number of times write queue was full causing retry
system.mem_ctrls2.totGap                 285068421500                       # Total gap between requests
system.mem_ctrls2.readPktSize::0                    0                       # Read request sizes (log2)
system.mem_ctrls2.readPktSize::1                    0                       # Read request sizes (log2)
system.mem_ctrls2.readPktSize::2                    0                       # Read request sizes (log2)
system.mem_ctrls2.readPktSize::3                    0                       # Read request sizes (log2)
system.mem_ctrls2.readPktSize::4                    0                       # Read request sizes (log2)
system.mem_ctrls2.readPktSize::5                    0                       # Read request sizes (log2)
[...]
system.ruby.L1Cache_Controller.M.PF_Store::total          160                      
system.ruby.L1Cache_Controller.IS.Data_Exclusive |      401525    100.00%    100.00% |           0      0.00%    100.00% |           0      0.00%    100.00% |           0      0.00%    100.00% |           0      0.00%    100.00% |           0      0.00%    100.00% |           0      0.00%    100.00% |           0      0.00%    100.00%
system.ruby.L1Cache_Controller.IS.Data_Exclusive::total       401525                      
system.ruby.L1Cache_Controller.IS.Data_all_Acks |      740280    100.00%    100.00% |           0      0.00%    100.00% |           0      0.00%    100.00% |           0      0.00%    100.00% |           0      0.00%    100.00% |           0      0.00%    100.00% |           0      0.00%    100.00% |           0      0.00%    100.00%
system.ruby.L1Cache_Controller.IS.Data_all_Acks::total       740280                      
system.ruby.L1Cache_Controller.IM.Data_all_Acks |      252765    100.00%    100.00% |           0      0.00%    100.00% |           0      0.00%    100.00% |           0      0.00%    100.00% |           0      0.00%    100.00% |           0      0.00%    100.00% |           0      0.00%    100.00% |           0      0.00%    100.00%
system.ruby.L1Cache_Controller.IM.Data_all_Acks::total       252765                      
system.ruby.L1Cache_Controller.M_I.Ifetch |           6    100.00%    100.00% |           0      0.00%    100.00% |           0      0.00%    100.00% |           0      0.00%    100.00% |           0      0.00%    100.00% |           0      0.00%    100.00% |           0      0.00%    100.00% |           0      0.00%    100.00%
system.ruby.L1Cache_Controller.M_I.Ifetch::total            6                      
system.ruby.L1Cache_Controller.M_I.WB_Ack |      723404    100.00%    100.00% |           0      0.00%    100.00% |           0      0.00%    100.00% |           0      0.00%    100.00% |           0      0.00%    100.00% |           0      0.00%    100.00% |           0      0.00%    100.00% |           0      0.00%    100.00%
system.ruby.L1Cache_Controller.M_I.WB_Ack::total       723404                      
system.ruby.L1Cache_Controller.PF_IS.Load |         123    100.00%    100.00% |           0      0.00%    100.00% |           0      0.00%    100.00% |           0      0.00%    100.00% |           0      0.00%    100.00% |           0      0.00%    100.00% |           0      0.00%    100.00% |           0      0.00%    100.00%
system.ruby.L1Cache_Controller.PF_IS.Load::total          123                      
system.ruby.L1Cache_Controller.PF_IS.Ifetch |          49    100.00%    100.00% |           0      0.00%    100.00% |           0      0.00%    100.00% |           0      0.00%    100.00% |           0      0.00%    100.00% |           0      0.00%    100.00% |           0      0.00%    100.00% |           0      0.00%    100.00%
system.ruby.L1Cache_Controller.PF_IS.Ifetch::total           49                      
system.ruby.L1Cache_Controller.PF_IS.Data_Exclusive |       30383    100.00%    100.00% |           0      0.00%    100.00% |           0      0.00%    100.00% |           0      0.00%    100.00% |           0      0.00%    100.00% |           0      0.00%    100.00% |           0      0.00%    100.00% |           0      0.00%    100.00%
system.ruby.L1Cache_Controller.PF_IS.Data_Exclusive::total        30383                      
system.ruby.L1Cache_Controller.PF_IS.Data_all_Acks |        7387    100.00%    100.00% |           0      0.00%    100.00% |           0      0.00%    100.00% |           0      0.00%    100.00% |           0      0.00%    100.00% |           0      0.00%    100.00% |           0      0.00%    100.00% |           0      0.00%    100.00%
system.ruby.L1Cache_Controller.PF_IS.Data_all_Acks::total         7387                      
system.ruby.L1Cache_Controller.PF_IM.Store |         442    100.00%    100.00% |           0      0.00%    100.00% |           0      0.00%    100.00% |           0      0.00%    100.00% |           0      0.00%    100.00% |           0      0.00%    100.00% |           0      0.00%    100.00% |           0      0.00%    100.00%
system.ruby.L1Cache_Controller.PF_IM.Store::total          442                      
system.ruby.L1Cache_Controller.PF_IM.Data_all_Acks |       38886    100.00%    100.00% |           0      0.00%    100.00% |           0      0.00%    100.00% |           0      0.00%    100.00% |           0      0.00%    100.00% |           0      0.00%    100.00% |           0      0.00%    100.00% |           0      0.00%    100.00%
system.ruby.L1Cache_Controller.PF_IM.Data_all_Acks::total        38886                      
system.ruby.L2Cache_Controller.L1_GET_INSTR |       59508      7.96%      7.96% |       55433      7.42%     15.38% |       52743      7.06%     22.43% |      153029     20.47%     42.90% |      150666     20.15%     63.06% |      158708     21.23%     84.29% |       63420      8.48%     92.77% |       54041      7.23%    100.00%
system.ruby.L2Cache_Controller.L1_GET_INSTR::total       747548                      
system.ruby.L2Cache_Controller.L1_GETS   |       67400     15.60%     15.60% |       52729     12.21%     27.81% |       53888     12.47%     40.28% |       52657     12.19%     52.47% |       50706     11.74%     64.20% |       50704     11.74%     75.94% |       49060     11.36%     87.30% |       54883     12.70%    100.00%
system.ruby.L2Cache_Controller.L1_GETS::total       432027                      
system.ruby.L2Cache_Controller.L1_GETX   |       37586     12.89%     12.89% |       35791     12.27%     25.16% |       37451     12.84%     38.00% |       36136     12.39%     50.39% |       35226     12.08%     62.47% |       38039     13.04%     75.51% |       35805     12.28%     87.79% |       35617     12.21%    100.00%
system.ruby.L2Cache_Controller.L1_GETX::total       291651                      
system.ruby.L2Cache_Controller.L1_PUTX   |      104849     14.49%     14.49% |       88515     12.24%     26.73% |       91258     12.62%     39.34% |       88764     12.27%     51.62% |       85927     11.88%     63.49% |       88739     12.27%     75.76% |       84856     11.73%     87.49% |       90496     12.51%    100.00%
system.ruby.L2Cache_Controller.L1_PUTX::total       723404                      
system.ruby.L2Cache_Controller.L2_Replacement |        4157     12.57%     12.57% |        4295     12.99%     25.56% |        4118     12.45%     38.01% |        4234     12.80%     50.82% |        4077     12.33%     63.15% |        4136     12.51%     75.65% |        3966     11.99%     87.65% |        4085     12.35%    100.00%
system.ruby.L2Cache_Controller.L2_Replacement::total        33068                      
system.ruby.L2Cache_Controller.L2_Replacement_clean |         100     13.00%     13.00% |          88     11.44%     24.45% |          97     12.61%     37.06% |          78     10.14%     47.20% |          96     12.48%     59.69% |         101     13.13%     72.82% |         100     13.00%     85.83% |         109     14.17%    100.00%
system.ruby.L2Cache_Controller.L2_Replacement_clean::total          769                      
system.ruby.L2Cache_Controller.Mem_Data  |        5609     12.85%     12.85% |        5486     12.57%     25.41% |        5455     12.49%     37.91% |        5433     12.44%     50.35% |        5412     12.40%     62.75% |        5416     12.41%     75.15% |        5420     12.41%     87.57% |        5428     12.43%    100.00%
system.ruby.L2Cache_Controller.Mem_Data::total        43659                      
system.ruby.L2Cache_Controller.Mem_Ack   |        4510     12.93%     12.93% |        4501     12.90%     25.83% |        4326     12.40%     38.23% |        4424     12.68%     50.92% |        4285     12.28%     63.20% |        4349     12.47%     75.67% |        4179     11.98%     87.65% |        4308     12.35%    100.00%
system.ruby.L2Cache_Controller.Mem_Ack::total        34882                      
system.ruby.L2Cache_Controller.WB_Data   |         135    100.00%    100.00% |           0      0.00%    100.00% |           0      0.00%    100.00% |           0      0.00%    100.00% |           0      0.00%    100.00% |           0      0.00%    100.00% |           0      0.00%    100.00% |           0      0.00%    100.00%
system.ruby.L2Cache_Controller.WB_Data::total          135                      
system.ruby.L2Cache_Controller.Ack_all   |          35     13.83%     13.83% |          31     12.25%     26.09% |          31     12.25%     38.34% |          23      9.09%     47.43% |          32     12.65%     60.08% |          30     11.86%     71.94% |          30     11.86%     83.79% |          41     16.21%    100.00%
system.ruby.L2Cache_Controller.Ack_all::total          253                      
system.ruby.L2Cache_Controller.Exclusive_Unblock |      104986     14.51%     14.51% |       88518     12.23%     26.74% |       91260     12.61%     39.36% |       88766     12.27%     51.62% |       85931     11.88%     63.50% |       88740     12.26%     75.76% |       84859     11.73%     87.49% |       90499     12.51%    100.00%
system.ruby.L2Cache_Controller.Exclusive_Unblock::total       723559                      
system.ruby.L2Cache_Controller.MEM_Inv   |         506     24.21%     24.21% |         236     11.29%     35.50% |         222     10.62%     46.12% |         224     10.72%     56.84% |         224     10.72%     67.56% |         224     10.72%     78.28% |         226     10.81%     89.09% |         228     10.91%    100.00%
system.ruby.L2Cache_Controller.MEM_Inv::total         2090                      
system.ruby.L2Cache_Controller.NP.L1_GET_INSTR |         354     12.24%     12.24% |         373     12.90%     25.14% |         378     13.07%     38.21% |         356     12.31%     50.52% |         340     11.76%     62.28% |         350     12.10%     74.38% |         367     12.69%     87.07% |         374     12.93%    100.00%
system.ruby.L2Cache_Controller.NP.L1_GET_INSTR::total         2892                      
system.ruby.L2Cache_Controller.NP.L1_GETS |        1114     12.94%     12.94% |        1104     12.83%     25.77% |        1072     12.46%     38.23% |        1069     12.42%     50.65% |        1086     12.62%     63.27% |        1061     12.33%     75.60% |        1048     12.18%     87.78% |        1052     12.22%    100.00%
system.ruby.L2Cache_Controller.NP.L1_GETS::total         8606                      
system.ruby.L2Cache_Controller.NP.L1_GETX |        4141     12.88%     12.88% |        4009     12.47%     25.34% |        4005     12.45%     37.79% |        4008     12.46%     50.26% |        3986     12.39%     62.65% |        4005     12.45%     75.10% |        4005     12.45%     87.56% |        4002     12.44%    100.00%
system.ruby.L2Cache_Controller.NP.L1_GETX::total        32161                      
system.ruby.L2Cache_Controller.SS.L1_GET_INSTR |       59153      7.94%      7.94% |       55060      7.39%     15.34% |       52362      7.03%     22.37% |      152673     20.50%     42.87% |      150325     20.19%     63.06% |      158355     21.27%     84.33% |       63051      8.47%     92.79% |       53667      7.21%    100.00%
system.ruby.L2Cache_Controller.SS.L1_GET_INSTR::total       744646                      
system.ruby.L2Cache_Controller.SS.L1_GETS |           0      0.00%      0.00% |           2      1.68%      1.68% |          79     66.39%     68.07% |          27     22.69%     90.76% |           1      0.84%     91.60% |           3      2.52%     94.12% |           6      5.04%     99.16% |           1      0.84%    100.00%
system.ruby.L2Cache_Controller.SS.L1_GETS::total          119                      
system.ruby.L2Cache_Controller.SS.L2_Replacement_clean |          33     14.04%     14.04% |          29     12.34%     26.38% |          30     12.77%     39.15% |          21      8.94%     48.09% |          28     11.91%     60.00% |          29     12.34%     72.34% |          27     11.49%     83.83% |          38     16.17%    100.00%
system.ruby.L2Cache_Controller.SS.L2_Replacement_clean::total          235                      
system.ruby.L2Cache_Controller.M.L1_GET_INSTR |           1     10.00%     10.00% |           0      0.00%     10.00% |           3     30.00%     40.00% |           0      0.00%     40.00% |           1     10.00%     50.00% |           3     30.00%     80.00% |           2     20.00%    100.00% |           0      0.00%    100.00%
system.ruby.L2Cache_Controller.M.L1_GET_INSTR::total           10                      
system.ruby.L2Cache_Controller.M.L1_GETS |       66286     15.66%     15.66% |       51623     12.20%     27.85% |       52737     12.46%     40.31% |       51561     12.18%     52.49% |       49619     11.72%     64.22% |       49640     11.73%     75.94% |       48006     11.34%     87.28% |       53830     12.72%    100.00%
system.ruby.L2Cache_Controller.M.L1_GETS::total       423302                      
system.ruby.L2Cache_Controller.M.L1_GETX |       33445     12.89%     12.89% |       31782     12.25%     25.14% |       33446     12.89%     38.03% |       32128     12.38%     50.41% |       31240     12.04%     62.45% |       34034     13.12%     75.56% |       31800     12.25%     87.82% |       31615     12.18%    100.00%
system.ruby.L2Cache_Controller.M.L1_GETX::total       259490                      
system.ruby.L2Cache_Controller.M.L2_Replacement |        4157     12.57%     12.57% |        4295     12.99%     25.56% |        4118     12.45%     38.01% |        4234     12.80%     50.82% |        4077     12.33%     63.15% |        4136     12.51%     75.65% |        3966     11.99%     87.65% |        4085     12.35%    100.00%
system.ruby.L2Cache_Controller.M.L2_Replacement::total        33068                      
system.ruby.L2Cache_Controller.M.L2_Replacement_clean |          67     12.55%     12.55% |          59     11.05%     23.60% |          67     12.55%     36.14% |          57     10.67%     46.82% |          68     12.73%     59.55% |          72     13.48%     73.03% |          73     13.67%     86.70% |          71     13.30%    100.00%
system.ruby.L2Cache_Controller.M.L2_Replacement_clean::total          534                      
system.ruby.L2Cache_Controller.M.MEM_Inv |         116     13.00%     13.00% |         116     13.00%     26.01% |         110     12.33%     38.34% |         110     12.33%     50.67% |         108     12.11%     62.78% |         111     12.44%     75.22% |         110     12.33%     87.56% |         111     12.44%    100.00%
system.ruby.L2Cache_Controller.M.MEM_Inv::total          892                      
system.ruby.L2Cache_Controller.MT.L1_PUTX |      104849     14.49%     14.49% |       88515     12.24%     26.73% |       91258     12.62%     39.34% |       88764     12.27%     51.62% |       85927     11.88%     63.49% |       88739     12.27%     75.76% |       84856     11.73%     87.49% |       90496     12.51%    100.00%
system.ruby.L2Cache_Controller.MT.L1_PUTX::total       723404                      
system.ruby.L2Cache_Controller.MT.MEM_Inv |         137     89.54%     89.54% |           2      1.31%     90.85% |           1      0.65%     91.50% |           2      1.31%     92.81% |           4      2.61%     95.42% |           1      0.65%     96.08% |           3      1.96%     98.04% |           3      1.96%    100.00%
system.ruby.L2Cache_Controller.MT.MEM_Inv::total          153                      
system.ruby.L2Cache_Controller.M_I.Mem_Ack |        4510     12.93%     12.93% |        4501     12.90%     25.83% |        4326     12.40%     38.23% |        4424     12.68%     50.92% |        4285     12.28%     63.20% |        4349     12.47%     75.67% |        4179     11.98%     87.65% |        4308     12.35%    100.00%
system.ruby.L2Cache_Controller.M_I.Mem_Ack::total        34882                      
system.ruby.L2Cache_Controller.M_I.MEM_Inv |         116     13.00%     13.00% |         116     13.00%     26.01% |         110     12.33%     38.34% |         110     12.33%     50.67% |         108     12.11%     62.78% |         111     12.44%     75.22% |         110     12.33%     87.56% |         111     12.44%    100.00%
system.ruby.L2Cache_Controller.M_I.MEM_Inv::total          892                      
system.ruby.L2Cache_Controller.MT_I.WB_Data |         135    100.00%    100.00% |           0      0.00%    100.00% |           0      0.00%    100.00% |           0      0.00%    100.00% |           0      0.00%    100.00% |           0      0.00%    100.00% |           0      0.00%    100.00% |           0      0.00%    100.00%
system.ruby.L2Cache_Controller.MT_I.WB_Data::total          135                      
system.ruby.L2Cache_Controller.MT_I.Ack_all |           2     11.11%     11.11% |           2     11.11%     22.22% |           1      5.56%     27.78% |           2     11.11%     38.89% |           4     22.22%     61.11% |           1      5.56%     66.67% |           3     16.67%     83.33% |           3     16.67%    100.00%
system.ruby.L2Cache_Controller.MT_I.Ack_all::total           18                      
system.ruby.L2Cache_Controller.MT_I.MEM_Inv |         137     89.54%     89.54% |           2      1.31%     90.85% |           1      0.65%     91.50% |           2      1.31%     92.81% |           4      2.61%     95.42% |           1      0.65%     96.08% |           3      1.96%     98.04% |           3      1.96%    100.00%
system.ruby.L2Cache_Controller.MT_I.MEM_Inv::total          153                      
system.ruby.L2Cache_Controller.I_I.Ack_all |          33     14.04%     14.04% |          29     12.34%     26.38% |          30     12.77%     39.15% |          21      8.94%     48.09% |          28     11.91%     60.00% |          29     12.34%     72.34% |          27     11.49%     83.83% |          38     16.17%    100.00%
system.ruby.L2Cache_Controller.I_I.Ack_all::total          235                      
system.ruby.L2Cache_Controller.ISS.Mem_Data |        1114     12.94%     12.94% |        1104     12.83%     25.77% |        1072     12.46%     38.23% |        1069     12.42%     50.65% |        1086     12.62%     63.27% |        1061     12.33%     75.60% |        1048     12.18%     87.78% |        1052     12.22%    100.00%
system.ruby.L2Cache_Controller.ISS.Mem_Data::total         8606                      
system.ruby.L2Cache_Controller.IS.Mem_Data |         354     12.24%     12.24% |         373     12.90%     25.14% |         378     13.07%     38.21% |         356     12.31%     50.52% |         340     11.76%     62.28% |         350     12.10%     74.38% |         367     12.69%     87.07% |         374     12.93%    100.00%
system.ruby.L2Cache_Controller.IS.Mem_Data::total         2892                      
system.ruby.L2Cache_Controller.IM.Mem_Data |        4141     12.88%     12.88% |        4009     12.47%     25.34% |        4005     12.45%     37.79% |        4008     12.46%     50.26% |        3986     12.39%     62.65% |        4005     12.45%     75.10% |        4005     12.45%     87.56% |        4002     12.44%    100.00%
system.ruby.L2Cache_Controller.IM.Mem_Data::total        32161                      
system.ruby.L2Cache_Controller.MT_MB.Exclusive_Unblock |      104986     14.51%     14.51% |       88518     12.23%     26.74% |       91260     12.61%     39.36% |       88766     12.27%     51.62% |       85931     11.88%     63.50% |       88740     12.26%     75.76% |       84859     11.73%     87.49% |       90499     12.51%    100.00%
system.ruby.L2Cache_Controller.MT_MB.Exclusive_Unblock::total       723559                      

---------- End Simulation Statistics   ----------
