
---------- Begin Simulation Statistics ----------
sim_seconds                                  0.325359                       # Number of seconds simulated
sim_ticks                                325359321000                       # Number of ticks simulated
final_tick                               5547503006000                       # Number of ticks from beginning of simulation (restored from checkpoints and never reset)
sim_freq                                 1000000000000                       # Frequency of simulated ticks
host_inst_rate                                 583637                       # Simulator instruction rate (inst/s)
host_op_rate                                  1077122                       # Simulator op (including micro ops) rate (op/s)
host_tick_rate                              632972083                       # Simulator tick rate (ticks/s)
host_mem_usage                                1750380                       # Number of bytes of host memory used
host_seconds                                   514.02                       # Real time elapsed on the host
sim_insts                                   300000001                       # Number of instructions simulated
sim_ops                                     553660369                       # Number of ops (including micro ops) simulated
system.voltage_domain.voltage                       1                       # Voltage in Volts
system.clk_domain.clock                          1000                       # Clock period in ticks
system.mem_ctrls0.pwrStateResidencyTicks::UNDEFINED 5547503006000                       # Cumulative time (in ticks) in various power states
system.mem_ctrls0.bytes_read::ruby.dir_cntrl0       366720                       # Number of bytes read from this memory
system.mem_ctrls0.bytes_read::total            366720                       # Number of bytes read from this memory
system.mem_ctrls0.bytes_written::ruby.dir_cntrl0       488448                       # Number of bytes written to this memory
system.mem_ctrls0.bytes_written::total         488448                       # Number of bytes written to this memory
system.mem_ctrls0.num_reads::ruby.dir_cntrl0         5730                       # Number of read requests responded to by this memory
system.mem_ctrls0.num_reads::total               5730                       # Number of read requests responded to by this memory
system.mem_ctrls0.num_writes::ruby.dir_cntrl0         7632                       # Number of write requests responded to by this memory
system.mem_ctrls0.num_writes::total              7632                       # Number of write requests responded to by this memory
system.mem_ctrls0.bw_read::ruby.dir_cntrl0      1127123                       # Total read bandwidth from this memory (bytes/s)
system.mem_ctrls0.bw_read::total              1127123                       # Total read bandwidth from this memory (bytes/s)
system.mem_ctrls0.bw_write::ruby.dir_cntrl0      1501257                       # Write bandwidth from this memory (bytes/s)
system.mem_ctrls0.bw_write::total             1501257                       # Write bandwidth from this memory (bytes/s)
system.mem_ctrls0.bw_total::ruby.dir_cntrl0      2628380                       # Total bandwidth to/from this memory (bytes/s)
system.mem_ctrls0.bw_total::total             2628380                       # Total bandwidth to/from this memory (bytes/s)
system.mem_ctrls0.readReqs                       5730                       # Number of read requests accepted
system.mem_ctrls0.writeReqs                      7632                       # Number of write requests accepted
system.mem_ctrls0.readBursts                     5730                       # Number of DRAM read bursts, including those serviced by the write queue
system.mem_ctrls0.writeBursts                    7632                       # Number of DRAM write bursts, including those merged in the write queue
system.mem_ctrls0.bytesReadDRAM                347968                       # Total number of bytes read from DRAM
system.mem_ctrls0.bytesReadWrQ                  18752                       # Total number of bytes read from write queue
system.mem_ctrls0.bytesWritten                 483456                       # Total number of bytes written to DRAM
system.mem_ctrls0.bytesReadSys                 366720                       # Total read bytes from the system interface side
system.mem_ctrls0.bytesWrittenSys              488448                       # Total written bytes from the system interface side
system.mem_ctrls0.servicedByWrQ                   293                       # Number of DRAM read bursts serviced by the write queue
system.mem_ctrls0.mergedWrBursts                   74                       # Number of DRAM write bursts merged with an existing one
system.mem_ctrls0.neitherReadNorWriteReqs            0                       # Number of requests that are neither read nor write
system.mem_ctrls0.perBankRdBursts::0              364                       # Per bank write bursts
system.mem_ctrls0.perBankRdBursts::1              464                       # Per bank write bursts
system.mem_ctrls0.perBankRdBursts::2              343                       # Per bank write bursts
system.mem_ctrls0.perBankRdBursts::3              406                       # Per bank write bursts
system.mem_ctrls0.perBankRdBursts::4              348                       # Per bank write bursts
system.mem_ctrls0.perBankRdBursts::5              290                       # Per bank write bursts
system.mem_ctrls0.perBankRdBursts::6              307                       # Per bank write bursts
system.mem_ctrls0.perBankRdBursts::7              266                       # Per bank write bursts
system.mem_ctrls0.perBankRdBursts::8              165                       # Per bank write bursts
system.mem_ctrls0.perBankRdBursts::9              250                       # Per bank write bursts
system.mem_ctrls0.perBankRdBursts::10             334                       # Per bank write bursts
system.mem_ctrls0.perBankRdBursts::11             395                       # Per bank write bursts
system.mem_ctrls0.perBankRdBursts::12             443                       # Per bank write bursts
system.mem_ctrls0.perBankRdBursts::13             248                       # Per bank write bursts
system.mem_ctrls0.perBankRdBursts::14             402                       # Per bank write bursts
system.mem_ctrls0.perBankRdBursts::15             412                       # Per bank write bursts
system.mem_ctrls0.perBankWrBursts::0              522                       # Per bank write bursts
system.mem_ctrls0.perBankWrBursts::1              550                       # Per bank write bursts
system.mem_ctrls0.perBankWrBursts::2              427                       # Per bank write bursts
system.mem_ctrls0.perBankWrBursts::3              324                       # Per bank write bursts
system.mem_ctrls0.perBankWrBursts::4              273                       # Per bank write bursts
system.mem_ctrls0.perBankWrBursts::5              320                       # Per bank write bursts
system.mem_ctrls0.perBankWrBursts::6              286                       # Per bank write bursts
system.mem_ctrls0.perBankWrBursts::7              465                       # Per bank write bursts
system.mem_ctrls0.perBankWrBursts::8              684                       # Per bank write bursts
system.mem_ctrls0.perBankWrBursts::9              684                       # Per bank write bursts
system.mem_ctrls0.perBankWrBursts::10             638                       # Per bank write bursts
system.mem_ctrls0.perBankWrBursts::11             602                       # Per bank write bursts
system.mem_ctrls0.perBankWrBursts::12             528                       # Per bank write bursts
system.mem_ctrls0.perBankWrBursts::13             437                       # Per bank write bursts
system.mem_ctrls0.perBankWrBursts::14             407                       # Per bank write bursts
system.mem_ctrls0.perBankWrBursts::15             407                       # Per bank write bursts
system.mem_ctrls0.numRdRetry                        0                       # Number of times read queue was full causing retry
system.mem_ctrls0.numWrRetry                       21                       # Number of times write queue was full causing retry
system.mem_ctrls0.totGap                 287840146000                       # Total gap between requests
system.mem_ctrls0.readPktSize::0                    0                       # Read request sizes (log2)
system.mem_ctrls0.readPktSize::1                    0                       # Read request sizes (log2)
system.mem_ctrls0.readPktSize::2                    0                       # Read request sizes (log2)
system.mem_ctrls0.readPktSize::3                    0                       # Read request sizes (log2)
system.mem_ctrls0.readPktSize::4                    0                       # Read request sizes (log2)
system.mem_ctrls0.readPktSize::5                    0                       # Read request sizes (log2)
system.mem_ctrls0.readPktSize::6                 5730                       # Read request sizes (log2)
system.mem_ctrls0.writePktSize::0                   0                       # Write request sizes (log2)
system.mem_ctrls0.writePktSize::1                   0                       # Write request sizes (log2)
system.mem_ctrls0.writePktSize::2                   0                       # Write request sizes (log2)
system.mem_ctrls0.writePktSize::3                   0                       # Write request sizes (log2)
system.mem_ctrls0.writePktSize::4                   0                       # Write request sizes (log2)
system.mem_ctrls0.writePktSize::5                   0                       # Write request sizes (log2)
system.mem_ctrls0.writePktSize::6                7632                       # Write request sizes (log2)
system.mem_ctrls0.rdQLenPdf::0                   5437                       # What read queue length does an incoming req see
system.mem_ctrls0.rdQLenPdf::1                      0                       # What read queue length does an incoming req see
system.mem_ctrls0.rdQLenPdf::2                      0                       # What read queue length does an incoming req see
system.mem_ctrls0.rdQLenPdf::3                      0                       # What read queue length does an incoming req see
system.mem_ctrls0.rdQLenPdf::4                      0                       # What read queue length does an incoming req see
system.mem_ctrls0.rdQLenPdf::5                      0                       # What read queue length does an incoming req see
system.mem_ctrls0.rdQLenPdf::6                      0                       # What read queue length does an incoming req see
system.mem_ctrls0.rdQLenPdf::7                      0                       # What read queue length does an incoming req see
system.mem_ctrls0.rdQLenPdf::8                      0                       # What read queue length does an incoming req see
system.mem_ctrls0.rdQLenPdf::9                      0                       # What read queue length does an incoming req see
system.mem_ctrls0.rdQLenPdf::10                     0                       # What read queue length does an incoming req see
system.mem_ctrls0.rdQLenPdf::11                     0                       # What read queue length does an incoming req see
system.mem_ctrls0.rdQLenPdf::12                     0                       # What read queue length does an incoming req see
system.mem_ctrls0.rdQLenPdf::13                     0                       # What read queue length does an incoming req see
system.mem_ctrls0.rdQLenPdf::14                     0                       # What read queue length does an incoming req see
system.mem_ctrls0.rdQLenPdf::15                     0                       # What read queue length does an incoming req see
system.mem_ctrls0.rdQLenPdf::16                     0                       # What read queue length does an incoming req see
system.mem_ctrls0.rdQLenPdf::17                     0                       # What read queue length does an incoming req see
system.mem_ctrls0.rdQLenPdf::18                     0                       # What read queue length does an incoming req see
system.mem_ctrls0.rdQLenPdf::19                     0                       # What read queue length does an incoming req see
system.mem_ctrls0.rdQLenPdf::20                     0                       # What read queue length does an incoming req see
system.mem_ctrls0.rdQLenPdf::21                     0                       # What read queue length does an incoming req see
system.mem_ctrls0.rdQLenPdf::22                     0                       # What read queue length does an incoming req see
system.mem_ctrls0.rdQLenPdf::23                     0                       # What read queue length does an incoming req see
system.mem_ctrls0.rdQLenPdf::24                     0                       # What read queue length does an incoming req see
system.mem_ctrls0.rdQLenPdf::25                     0                       # What read queue length does an incoming req see
system.mem_ctrls0.rdQLenPdf::26                     0                       # What read queue length does an incoming req see
system.mem_ctrls0.rdQLenPdf::27                     0                       # What read queue length does an incoming req see
system.mem_ctrls0.rdQLenPdf::28                     0                       # What read queue length does an incoming req see
system.mem_ctrls0.rdQLenPdf::29                     0                       # What read queue length does an incoming req see
system.mem_ctrls0.rdQLenPdf::30                     0                       # What read queue length does an incoming req see
system.mem_ctrls0.rdQLenPdf::31                     0                       # What read queue length does an incoming req see
system.mem_ctrls0.wrQLenPdf::0                      0                       # What write queue length does an incoming req see
system.mem_ctrls0.wrQLenPdf::1                      0                       # What write queue length does an incoming req see
system.mem_ctrls0.wrQLenPdf::2                      0                       # What write queue length does an incoming req see
system.mem_ctrls0.wrQLenPdf::3                      0                       # What write queue length does an incoming req see
system.mem_ctrls0.wrQLenPdf::4                      0                       # What write queue length does an incoming req see
system.mem_ctrls0.wrQLenPdf::5                      0                       # What write queue length does an incoming req see
system.mem_ctrls0.wrQLenPdf::6                      0                       # What write queue length does an incoming req see
system.mem_ctrls0.wrQLenPdf::7                      0                       # What write queue length does an incoming req see
system.mem_ctrls0.wrQLenPdf::8                      0                       # What write queue length does an incoming req see
system.mem_ctrls0.wrQLenPdf::9                      0                       # What write queue length does an incoming req see
system.mem_ctrls0.wrQLenPdf::10                     0                       # What write queue length does an incoming req see
system.mem_ctrls0.wrQLenPdf::11                     0                       # What write queue length does an incoming req see
system.mem_ctrls0.wrQLenPdf::12                     0                       # What write queue length does an incoming req see
system.mem_ctrls0.wrQLenPdf::13                     0                       # What write queue length does an incoming req see
system.mem_ctrls0.wrQLenPdf::14                     0                       # What write queue length does an incoming req see
system.mem_ctrls0.wrQLenPdf::15                    88                       # What write queue length does an incoming req see
system.mem_ctrls0.wrQLenPdf::16                   113                       # What write queue length does an incoming req see
system.mem_ctrls0.wrQLenPdf::17                   370                       # What write queue length does an incoming req see
system.mem_ctrls0.wrQLenPdf::18                   391                       # What write queue length does an incoming req see
system.mem_ctrls0.wrQLenPdf::19                   416                       # What write queue length does an incoming req see
system.mem_ctrls0.wrQLenPdf::20                   412                       # What write queue length does an incoming req see
system.mem_ctrls0.wrQLenPdf::21                   401                       # What write queue length does an incoming req see
system.mem_ctrls0.wrQLenPdf::22                   415                       # What write queue length does an incoming req see
system.mem_ctrls0.wrQLenPdf::23                   407                       # What write queue length does an incoming req see
system.mem_ctrls0.wrQLenPdf::24                   432                       # What write queue length does an incoming req see
system.mem_ctrls0.wrQLenPdf::25                   456                       # What write queue length does an incoming req see
system.mem_ctrls0.wrQLenPdf::26                   421                       # What write queue length does an incoming req see
system.mem_ctrls0.wrQLenPdf::27                   404                       # What write queue length does an incoming req see
system.mem_ctrls0.wrQLenPdf::28                   404                       # What write queue length does an incoming req see
system.mem_ctrls0.wrQLenPdf::29                   397                       # What write queue length does an incoming req see
system.mem_ctrls0.wrQLenPdf::30                   384                       # What write queue length does an incoming req see
system.mem_ctrls0.wrQLenPdf::31                   377                       # What write queue length does an incoming req see
system.mem_ctrls0.wrQLenPdf::32                   388                       # What write queue length does an incoming req see
system.mem_ctrls0.wrQLenPdf::33                    46                       # What write queue length does an incoming req see
system.mem_ctrls0.wrQLenPdf::34                    42                       # What write queue length does an incoming req see
system.mem_ctrls0.wrQLenPdf::35                    37                       # What write queue length does an incoming req see
system.mem_ctrls0.wrQLenPdf::36                    37                       # What write queue length does an incoming req see
system.mem_ctrls0.wrQLenPdf::37                    33                       # What write queue length does an incoming req see
system.mem_ctrls0.wrQLenPdf::38                    33                       # What write queue length does an incoming req see
system.mem_ctrls0.wrQLenPdf::39                    36                       # What write queue length does an incoming req see
system.mem_ctrls0.wrQLenPdf::40                    36                       # What write queue length does an incoming req see
system.mem_ctrls0.wrQLenPdf::41                    30                       # What write queue length does an incoming req see
system.mem_ctrls0.wrQLenPdf::42                    25                       # What write queue length does an incoming req see
system.mem_ctrls0.wrQLenPdf::43                    24                       # What write queue length does an incoming req see
system.mem_ctrls0.wrQLenPdf::44                    25                       # What write queue length does an incoming req see
system.mem_ctrls0.wrQLenPdf::45                    25                       # What write queue length does an incoming req see
system.mem_ctrls0.wrQLenPdf::46                    27                       # What write queue length does an incoming req see
system.mem_ctrls0.wrQLenPdf::47                    25                       # What write queue length does an incoming req see
system.mem_ctrls0.wrQLenPdf::48                    23                       # What write queue length does an incoming req see
system.mem_ctrls0.wrQLenPdf::49                    22                       # What write queue length does an incoming req see
system.mem_ctrls0.wrQLenPdf::50                    28                       # What write queue length does an incoming req see
system.mem_ctrls0.wrQLenPdf::51                    25                       # What write queue length does an incoming req see
system.mem_ctrls0.wrQLenPdf::52                    30                       # What write queue length does an incoming req see
system.mem_ctrls0.wrQLenPdf::53                    30                       # What write queue length does an incoming req see
system.mem_ctrls0.wrQLenPdf::54                    28                       # What write queue length does an incoming req see
system.mem_ctrls0.wrQLenPdf::55                    29                       # What write queue length does an incoming req see
system.mem_ctrls0.wrQLenPdf::56                    28                       # What write queue length does an incoming req see
system.mem_ctrls0.wrQLenPdf::57                    24                       # What write queue length does an incoming req see
system.mem_ctrls0.wrQLenPdf::58                    20                       # What write queue length does an incoming req see
system.mem_ctrls0.wrQLenPdf::59                    16                       # What write queue length does an incoming req see
system.mem_ctrls0.wrQLenPdf::60                    17                       # What write queue length does an incoming req see
system.mem_ctrls0.wrQLenPdf::61                    20                       # What write queue length does an incoming req see
system.mem_ctrls0.wrQLenPdf::62                    21                       # What write queue length does an incoming req see
system.mem_ctrls0.wrQLenPdf::63                    40                       # What write queue length does an incoming req see
system.mem_ctrls0.bytesPerActivate::samples         3402                       # Bytes accessed per row activation
system.mem_ctrls0.bytesPerActivate::mean   244.392710                       # Bytes accessed per row activation
system.mem_ctrls0.bytesPerActivate::gmean   162.331225                       # Bytes accessed per row activation
system.mem_ctrls0.bytesPerActivate::stdev   243.582641                       # Bytes accessed per row activation
system.mem_ctrls0.bytesPerActivate::0-127         1274     37.45%     37.45% # Bytes accessed per row activation
system.mem_ctrls0.bytesPerActivate::128-255          854     25.10%     62.55% # Bytes accessed per row activation
system.mem_ctrls0.bytesPerActivate::256-383          476     13.99%     76.54% # Bytes accessed per row activation
system.mem_ctrls0.bytesPerActivate::384-511          346     10.17%     86.71% # Bytes accessed per row activation
system.mem_ctrls0.bytesPerActivate::512-639          182      5.35%     92.06% # Bytes accessed per row activation
system.mem_ctrls0.bytesPerActivate::640-767           64      1.88%     93.94% # Bytes accessed per row activation
system.mem_ctrls0.bytesPerActivate::768-895           26      0.76%     94.71% # Bytes accessed per row activation
system.mem_ctrls0.bytesPerActivate::896-1023           27      0.79%     95.50% # Bytes accessed per row activation
system.mem_ctrls0.bytesPerActivate::1024-1151          153      4.50%    100.00% # Bytes accessed per row activation
system.mem_ctrls0.bytesPerActivate::total         3402                       # Bytes accessed per row activation
system.mem_ctrls0.rdPerTurnAround::samples          364                       # Reads before turning the bus around for writes
system.mem_ctrls0.rdPerTurnAround::mean     14.931319                       # Reads before turning the bus around for writes
system.mem_ctrls0.rdPerTurnAround::stdev    11.496470                       # Reads before turning the bus around for writes
system.mem_ctrls0.rdPerTurnAround::0-3             80     21.98%     21.98% # Reads before turning the bus around for writes
system.mem_ctrls0.rdPerTurnAround::4-7             18      4.95%     26.92% # Reads before turning the bus around for writes
system.mem_ctrls0.rdPerTurnAround::8-11            21      5.77%     32.69% # Reads before turning the bus around for writes
system.mem_ctrls0.rdPerTurnAround::12-15           15      4.12%     36.81% # Reads before turning the bus around for writes
system.mem_ctrls0.rdPerTurnAround::16-19          158     43.41%     80.22% # Reads before turning the bus around for writes
system.mem_ctrls0.rdPerTurnAround::20-23           27      7.42%     87.64% # Reads before turning the bus around for writes
system.mem_ctrls0.rdPerTurnAround::24-27           18      4.95%     92.58% # Reads before turning the bus around for writes
system.mem_ctrls0.rdPerTurnAround::28-31           11      3.02%     95.60% # Reads before turning the bus around for writes
system.mem_ctrls0.rdPerTurnAround::32-35            2      0.55%     96.15% # Reads before turning the bus around for writes
system.mem_ctrls0.rdPerTurnAround::36-39            3      0.82%     96.98% # Reads before turning the bus around for writes
system.mem_ctrls0.rdPerTurnAround::40-43            3      0.82%     97.80% # Reads before turning the bus around for writes
system.mem_ctrls0.rdPerTurnAround::44-47            1      0.27%     98.08% # Reads before turning the bus around for writes
system.mem_ctrls0.rdPerTurnAround::48-51            2      0.55%     98.63% # Reads before turning the bus around for writes
system.mem_ctrls0.rdPerTurnAround::56-59            1      0.27%     98.90% # Reads before turning the bus around for writes
system.mem_ctrls0.rdPerTurnAround::64-67            1      0.27%     99.18% # Reads before turning the bus around for writes
system.mem_ctrls0.rdPerTurnAround::72-75            2      0.55%     99.73% # Reads before turning the bus around for writes
system.mem_ctrls0.rdPerTurnAround::84-87            1      0.27%    100.00% # Reads before turning the bus around for writes
system.mem_ctrls0.rdPerTurnAround::total          364                       # Reads before turning the bus around for writes
system.mem_ctrls0.wrPerTurnAround::samples          364                       # Writes before turning the bus around for reads
system.mem_ctrls0.wrPerTurnAround::mean     20.752747                       # Writes before turning the bus around for reads
system.mem_ctrls0.wrPerTurnAround::gmean    19.226233                       # Writes before turning the bus around for reads
system.mem_ctrls0.wrPerTurnAround::stdev    10.352166                       # Writes before turning the bus around for reads
system.mem_ctrls0.wrPerTurnAround::16-17          262     71.98%     71.98% # Writes before turning the bus around for reads
system.mem_ctrls0.wrPerTurnAround::18-19           14      3.85%     75.82% # Writes before turning the bus around for reads
system.mem_ctrls0.wrPerTurnAround::20-21            3      0.82%     76.65% # Writes before turning the bus around for reads
system.mem_ctrls0.wrPerTurnAround::22-23            8      2.20%     78.85% # Writes before turning the bus around for reads
system.mem_ctrls0.wrPerTurnAround::24-25            6      1.65%     80.49% # Writes before turning the bus around for reads
system.mem_ctrls0.wrPerTurnAround::26-27            6      1.65%     82.14% # Writes before turning the bus around for reads
system.mem_ctrls0.wrPerTurnAround::28-29           14      3.85%     85.99% # Writes before turning the bus around for reads
system.mem_ctrls0.wrPerTurnAround::30-31            7      1.92%     87.91% # Writes before turning the bus around for reads
system.mem_ctrls0.wrPerTurnAround::32-33            4      1.10%     89.01% # Writes before turning the bus around for reads
system.mem_ctrls0.wrPerTurnAround::34-35            6      1.65%     90.66% # Writes before turning the bus around for reads
system.mem_ctrls0.wrPerTurnAround::36-37            6      1.65%     92.31% # Writes before turning the bus around for reads
system.mem_ctrls0.wrPerTurnAround::38-39            3      0.82%     93.13% # Writes before turning the bus around for reads
system.mem_ctrls0.wrPerTurnAround::40-41            3      0.82%     93.96% # Writes before turning the bus around for reads
system.mem_ctrls0.wrPerTurnAround::42-43            5      1.37%     95.33% # Writes before turning the bus around for reads
system.mem_ctrls0.wrPerTurnAround::44-45            3      0.82%     96.15% # Writes before turning the bus around for reads
system.mem_ctrls0.wrPerTurnAround::46-47            1      0.27%     96.43% # Writes before turning the bus around for reads
system.mem_ctrls0.wrPerTurnAround::48-49            6      1.65%     98.08% # Writes before turning the bus around for reads
system.mem_ctrls0.wrPerTurnAround::50-51            1      0.27%     98.35% # Writes before turning the bus around for reads
system.mem_ctrls0.wrPerTurnAround::56-57            1      0.27%     98.63% # Writes before turning the bus around for reads
system.mem_ctrls0.wrPerTurnAround::60-61            1      0.27%     98.90% # Writes before turning the bus around for reads
system.mem_ctrls0.wrPerTurnAround::64-65            1      0.27%     99.18% # Writes before turning the bus around for reads
system.mem_ctrls0.wrPerTurnAround::70-71            1      0.27%     99.45% # Writes before turning the bus around for reads
system.mem_ctrls0.wrPerTurnAround::84-85            1      0.27%     99.73% # Writes before turning the bus around for reads
system.mem_ctrls0.wrPerTurnAround::86-87            1      0.27%    100.00% # Writes before turning the bus around for reads
system.mem_ctrls0.wrPerTurnAround::total          364                       # Writes before turning the bus around for reads
system.mem_ctrls0.totQLat                   478275250                       # Total ticks spent queuing
system.mem_ctrls0.totMemAccLat              580219000                       # Total ticks spent from burst creation until serviced by the DRAM
system.mem_ctrls0.totBusLat                  27185000                       # Total ticks spent in databus transfers
system.mem_ctrls0.avgQLat                    87966.76                       # Average queueing delay per DRAM burst
system.mem_ctrls0.avgBusLat                   5000.00                       # Average bus latency per DRAM burst
system.mem_ctrls0.avgMemAccLat              106716.76                       # Average memory access latency per DRAM burst
system.mem_ctrls0.avgRdBW                        1.07                       # Average DRAM read bandwidth in MiByte/s
system.mem_ctrls0.avgWrBW                        1.49                       # Average achieved write bandwidth in MiByte/s
system.mem_ctrls0.avgRdBWSys                     1.13                       # Average system read bandwidth in MiByte/s
system.mem_ctrls0.avgWrBWSys                     1.50                       # Average system write bandwidth in MiByte/s
system.mem_ctrls0.peakBW                     12800.00                       # Theoretical peak bandwidth in MiByte/s
system.mem_ctrls0.busUtil                        0.02                       # Data bus utilization in percentage
system.mem_ctrls0.busUtilRead                    0.01                       # Data bus utilization in percentage for reads
system.mem_ctrls0.busUtilWrite                   0.01                       # Data bus utilization in percentage for writes
system.mem_ctrls0.avgRdQLen                      1.00                       # Average read queue length when enqueuing
system.mem_ctrls0.avgWrQLen                     25.22                       # Average write queue length when enqueuing
system.mem_ctrls0.readRowHits                    3688                       # Number of row buffer hits during reads
system.mem_ctrls0.writeRowHits                   5901                       # Number of row buffer hits during writes
system.mem_ctrls0.readRowHitRate                67.83                       # Row buffer hit rate for reads
system.mem_ctrls0.writeRowHitRate               78.08                       # Row buffer hit rate for writes
system.mem_ctrls0.avgGap                  21541696.30                       # Average gap between requests
system.mem_ctrls0.pageHitRate                   73.79                       # Row buffer hit rate, read and write combined
system.mem_ctrls0_0.actEnergy                51765000                       # Energy for activate commands per rank (pJ)
system.mem_ctrls0_0.preEnergy                27513750                       # Energy for precharge commands per rank (pJ)
system.mem_ctrls0_0.readEnergy              141043560                       # Energy for read commands per rank (pJ)
system.mem_ctrls0_0.writeEnergy              40272300                       # Energy for write commands per rank (pJ)
system.mem_ctrls0_0.refreshEnergy        5710005600.000001                       # Energy for refresh commands per rank (pJ)
system.mem_ctrls0_0.actBackEnergy          1707146580                       # Energy for active background per rank (pJ)
system.mem_ctrls0_0.preBackEnergy           326132160                       # Energy for precharge background per rank (pJ)
system.mem_ctrls0_0.actPowerDownEnergy    13812693720                       # Energy for active power-down per rank (pJ)
system.mem_ctrls0_0.prePowerDownEnergy     8218536000                       # Energy for precharge power-down per rank (pJ)
system.mem_ctrls0_0.selfRefreshEnergy    1319114687325                       # Energy for self refresh per rank (pJ)
system.mem_ctrls0_0.totalEnergy          1349151264375                       # Total energy per rank (pJ)
system.mem_ctrls0_0.averagePower           243.199736                       # Core power per rank (mW)
system.mem_ctrls0_0.totalIdleTime        286742216000                       # Total Idle time Per DRAM Rank
system.mem_ctrls0_0.memoryStateTime::IDLE    138625000                       # Time in different power states
system.mem_ctrls0_0.memoryStateTime::REF    463310000                       # Time in different power states
system.mem_ctrls0_0.memoryStateTime::SREF 315878266000                       # Time in different power states
system.mem_ctrls0_0.memoryStateTime::PRE_PDN   4223584500                       # Time in different power states
system.mem_ctrls0_0.memoryStateTime::ACT    484930750                       # Time in different power states
system.mem_ctrls0_0.memoryStateTime::ACT_PDN   5078631250                       # Time in different power states
system.mem_ctrls0_1.actEnergy                44346540                       # Energy for activate commands per rank (pJ)
system.mem_ctrls0_1.preEnergy                23570745                       # Energy for precharge commands per rank (pJ)
system.mem_ctrls0_1.readEnergy              138501720                       # Energy for read commands per rank (pJ)
system.mem_ctrls0_1.writeEnergy              41018760                       # Energy for write commands per rank (pJ)
system.mem_ctrls0_1.refreshEnergy        4926339600.000001                       # Energy for refresh commands per rank (pJ)
system.mem_ctrls0_1.actBackEnergy          1623937410                       # Energy for active background per rank (pJ)
system.mem_ctrls0_1.preBackEnergy           279820320                       # Energy for precharge background per rank (pJ)
system.mem_ctrls0_1.actPowerDownEnergy    12312908580                       # Energy for active power-down per rank (pJ)
system.mem_ctrls0_1.prePowerDownEnergy     6766051680                       # Energy for precharge power-down per rank (pJ)
system.mem_ctrls0_1.selfRefreshEnergy    1320690026115                       # Energy for self refresh per rank (pJ)
system.mem_ctrls0_1.totalEnergy          1346847629100                       # Total energy per rank (pJ)
system.mem_ctrls0_1.averagePower           242.784479                       # Core power per rank (mW)
system.mem_ctrls0_1.totalIdleTime        289065227000                       # Total Idle time Per DRAM Rank
system.mem_ctrls0_1.memoryStateTime::IDLE    124728500                       # Time in different power states
system.mem_ctrls0_1.memoryStateTime::REF    418846000                       # Time in different power states
system.mem_ctrls0_1.memoryStateTime::SREF 319342489000                       # Time in different power states
system.mem_ctrls0_1.memoryStateTime::PRE_PDN   3741865750                       # Time in different power states
system.mem_ctrls0_1.memoryStateTime::ACT    646718250                       # Time in different power states
system.mem_ctrls0_1.memoryStateTime::ACT_PDN   4416020250                       # Time in different power states
system.mem_ctrls1.pwrStateResidencyTicks::UNDEFINED 5547503006000                       # Cumulative time (in ticks) in various power states
system.mem_ctrls1.bytes_read::ruby.dir_cntrl1       356096                       # Number of bytes read from this memory
system.mem_ctrls1.bytes_read::total            356096                       # Number of bytes read from this memory
system.mem_ctrls1.bytes_written::ruby.dir_cntrl1       486656                       # Number of bytes written to this memory
system.mem_ctrls1.bytes_written::total         486656                       # Number of bytes written to this memory
system.mem_ctrls1.num_reads::ruby.dir_cntrl1         5564                       # Number of read requests responded to by this memory
system.mem_ctrls1.num_reads::total               5564                       # Number of read requests responded to by this memory
system.mem_ctrls1.num_writes::ruby.dir_cntrl1         7604                       # Number of write requests responded to by this memory
system.mem_ctrls1.num_writes::total              7604                       # Number of write requests responded to by this memory
system.mem_ctrls1.bw_read::ruby.dir_cntrl1      1094470                       # Total read bandwidth from this memory (bytes/s)
system.mem_ctrls1.bw_read::total              1094470                       # Total read bandwidth from this memory (bytes/s)
system.mem_ctrls1.bw_write::ruby.dir_cntrl1      1495749                       # Write bandwidth from this memory (bytes/s)
system.mem_ctrls1.bw_write::total             1495749                       # Write bandwidth from this memory (bytes/s)
system.mem_ctrls1.bw_total::ruby.dir_cntrl1      2590219                       # Total bandwidth to/from this memory (bytes/s)
system.mem_ctrls1.bw_total::total             2590219                       # Total bandwidth to/from this memory (bytes/s)
system.mem_ctrls1.readReqs                       5564                       # Number of read requests accepted
system.mem_ctrls1.writeReqs                      7604                       # Number of write requests accepted
system.mem_ctrls1.readBursts                     5564                       # Number of DRAM read bursts, including those serviced by the write queue
system.mem_ctrls1.writeBursts                    7604                       # Number of DRAM write bursts, including those merged in the write queue
system.mem_ctrls1.bytesReadDRAM                343296                       # Total number of bytes read from DRAM
system.mem_ctrls1.bytesReadWrQ                  12800                       # Total number of bytes read from write queue
system.mem_ctrls1.bytesWritten                 485824                       # Total number of bytes written to DRAM
system.mem_ctrls1.bytesReadSys                 356096                       # Total read bytes from the system interface side
system.mem_ctrls1.bytesWrittenSys              486656                       # Total written bytes from the system interface side
system.mem_ctrls1.servicedByWrQ                   200                       # Number of DRAM read bursts serviced by the write queue
system.mem_ctrls1.mergedWrBursts                    0                       # Number of DRAM write bursts merged with an existing one
system.mem_ctrls1.neitherReadNorWriteReqs            0                       # Number of requests that are neither read nor write
system.mem_ctrls1.perBankRdBursts::0              367                       # Per bank write bursts
system.mem_ctrls1.perBankRdBursts::1              373                       # Per bank write bursts
system.mem_ctrls1.perBankRdBursts::2              344                       # Per bank write bursts
system.mem_ctrls1.perBankRdBursts::3              400                       # Per bank write bursts
system.mem_ctrls1.perBankRdBursts::4              348                       # Per bank write bursts
system.mem_ctrls1.perBankRdBursts::5              290                       # Per bank write bursts
system.mem_ctrls1.perBankRdBursts::6              310                       # Per bank write bursts
system.mem_ctrls1.perBankRdBursts::7              259                       # Per bank write bursts
system.mem_ctrls1.perBankRdBursts::8              166                       # Per bank write bursts
system.mem_ctrls1.perBankRdBursts::9              244                       # Per bank write bursts
system.mem_ctrls1.perBankRdBursts::10             340                       # Per bank write bursts
system.mem_ctrls1.perBankRdBursts::11             396                       # Per bank write bursts
system.mem_ctrls1.perBankRdBursts::12             448                       # Per bank write bursts
system.mem_ctrls1.perBankRdBursts::13             262                       # Per bank write bursts
system.mem_ctrls1.perBankRdBursts::14             400                       # Per bank write bursts
system.mem_ctrls1.perBankRdBursts::15             417                       # Per bank write bursts
system.mem_ctrls1.perBankWrBursts::0              517                       # Per bank write bursts
system.mem_ctrls1.perBankWrBursts::1              488                       # Per bank write bursts
system.mem_ctrls1.perBankWrBursts::2              426                       # Per bank write bursts
system.mem_ctrls1.perBankWrBursts::3              337                       # Per bank write bursts
system.mem_ctrls1.perBankWrBursts::4              276                       # Per bank write bursts
system.mem_ctrls1.perBankWrBursts::5              355                       # Per bank write bursts
system.mem_ctrls1.perBankWrBursts::6              330                       # Per bank write bursts
system.mem_ctrls1.perBankWrBursts::7              466                       # Per bank write bursts
system.mem_ctrls1.perBankWrBursts::8              682                       # Per bank write bursts
system.mem_ctrls1.perBankWrBursts::9              673                       # Per bank write bursts
system.mem_ctrls1.perBankWrBursts::10             651                       # Per bank write bursts
system.mem_ctrls1.perBankWrBursts::11             605                       # Per bank write bursts
system.mem_ctrls1.perBankWrBursts::12             533                       # Per bank write bursts
system.mem_ctrls1.perBankWrBursts::13             436                       # Per bank write bursts
system.mem_ctrls1.perBankWrBursts::14             408                       # Per bank write bursts
system.mem_ctrls1.perBankWrBursts::15             408                       # Per bank write bursts
system.mem_ctrls1.numRdRetry                        0                       # Number of times read queue was full causing retry
system.mem_ctrls1.numWrRetry                       65                       # Number of times write queue was full causing retry
system.mem_ctrls1.totGap                 290253264000                       # Total gap between requests
system.mem_ctrls1.readPktSize::0                    0                       # Read request sizes (log2)
system.mem_ctrls1.readPktSize::1                    0                       # Read request sizes (log2)
system.mem_ctrls1.readPktSize::2                    0                       # Read request sizes (log2)
system.mem_ctrls1.readPktSize::3                    0                       # Read request sizes (log2)
system.mem_ctrls1.readPktSize::4                    0                       # Read request sizes (log2)
system.mem_ctrls1.readPktSize::5                    0                       # Read request sizes (log2)
system.mem_ctrls1.readPktSize::6                 5564                       # Read request sizes (log2)
system.mem_ctrls1.writePktSize::0                   0                       # Write request sizes (log2)
system.mem_ctrls1.writePktSize::1                   0                       # Write request sizes (log2)
system.mem_ctrls1.writePktSize::2                   0                       # Write request sizes (log2)
system.mem_ctrls1.writePktSize::3                   0                       # Write request sizes (log2)
system.mem_ctrls1.writePktSize::4                   0                       # Write request sizes (log2)
system.mem_ctrls1.writePktSize::5                   0                       # Write request sizes (log2)
system.mem_ctrls1.writePktSize::6                7604                       # Write request sizes (log2)
system.mem_ctrls1.rdQLenPdf::0                   5363                       # What read queue length does an incoming req see
system.mem_ctrls1.rdQLenPdf::1                      1                       # What read queue length does an incoming req see
system.mem_ctrls1.rdQLenPdf::2                      0                       # What read queue length does an incoming req see
system.mem_ctrls1.rdQLenPdf::3                      0                       # What read queue length does an incoming req see
system.mem_ctrls1.rdQLenPdf::4                      0                       # What read queue length does an incoming req see
system.mem_ctrls1.rdQLenPdf::5                      0                       # What read queue length does an incoming req see
system.mem_ctrls1.rdQLenPdf::6                      0                       # What read queue length does an incoming req see
system.mem_ctrls1.rdQLenPdf::7                      0                       # What read queue length does an incoming req see
system.mem_ctrls1.rdQLenPdf::8                      0                       # What read queue length does an incoming req see
system.mem_ctrls1.rdQLenPdf::9                      0                       # What read queue length does an incoming req see
system.mem_ctrls1.rdQLenPdf::10                     0                       # What read queue length does an incoming req see
system.mem_ctrls1.rdQLenPdf::11                     0                       # What read queue length does an incoming req see
system.mem_ctrls1.rdQLenPdf::12                     0                       # What read queue length does an incoming req see
system.mem_ctrls1.rdQLenPdf::13                     0                       # What read queue length does an incoming req see
system.mem_ctrls1.rdQLenPdf::14                     0                       # What read queue length does an incoming req see
system.mem_ctrls1.rdQLenPdf::15                     0                       # What read queue length does an incoming req see
system.mem_ctrls1.rdQLenPdf::16                     0                       # What read queue length does an incoming req see
system.mem_ctrls1.rdQLenPdf::17                     0                       # What read queue length does an incoming req see
system.mem_ctrls1.rdQLenPdf::18                     0                       # What read queue length does an incoming req see
system.mem_ctrls1.rdQLenPdf::19                     0                       # What read queue length does an incoming req see
system.mem_ctrls1.rdQLenPdf::20                     0                       # What read queue length does an incoming req see
system.mem_ctrls1.rdQLenPdf::21                     0                       # What read queue length does an incoming req see
system.mem_ctrls1.rdQLenPdf::22                     0                       # What read queue length does an incoming req see
system.mem_ctrls1.rdQLenPdf::23                     0                       # What read queue length does an incoming req see
system.mem_ctrls1.rdQLenPdf::24                     0                       # What read queue length does an incoming req see
system.mem_ctrls1.rdQLenPdf::25                     0                       # What read queue length does an incoming req see
system.mem_ctrls1.rdQLenPdf::26                     0                       # What read queue length does an incoming req see
system.mem_ctrls1.rdQLenPdf::27                     0                       # What read queue length does an incoming req see
system.mem_ctrls1.rdQLenPdf::28                     0                       # What read queue length does an incoming req see
system.mem_ctrls1.rdQLenPdf::29                     0                       # What read queue length does an incoming req see
system.mem_ctrls1.rdQLenPdf::30                     0                       # What read queue length does an incoming req see
system.mem_ctrls1.rdQLenPdf::31                     0                       # What read queue length does an incoming req see
system.mem_ctrls1.wrQLenPdf::0                      0                       # What write queue length does an incoming req see
system.mem_ctrls1.wrQLenPdf::1                      0                       # What write queue length does an incoming req see
system.mem_ctrls1.wrQLenPdf::2                      0                       # What write queue length does an incoming req see
system.mem_ctrls1.wrQLenPdf::3                      0                       # What write queue length does an incoming req see
system.mem_ctrls1.wrQLenPdf::4                      0                       # What write queue length does an incoming req see
system.mem_ctrls1.wrQLenPdf::5                      0                       # What write queue length does an incoming req see
system.mem_ctrls1.wrQLenPdf::6                      0                       # What write queue length does an incoming req see
system.mem_ctrls1.wrQLenPdf::7                      0                       # What write queue length does an incoming req see
system.mem_ctrls1.wrQLenPdf::8                      0                       # What write queue length does an incoming req see
system.mem_ctrls1.wrQLenPdf::9                      0                       # What write queue length does an incoming req see
system.mem_ctrls1.wrQLenPdf::10                     0                       # What write queue length does an incoming req see
system.mem_ctrls1.wrQLenPdf::11                     0                       # What write queue length does an incoming req see
system.mem_ctrls1.wrQLenPdf::12                     0                       # What write queue length does an incoming req see
system.mem_ctrls1.wrQLenPdf::13                     0                       # What write queue length does an incoming req see
system.mem_ctrls1.wrQLenPdf::14                     0                       # What write queue length does an incoming req see
system.mem_ctrls1.wrQLenPdf::15                    99                       # What write queue length does an incoming req see
system.mem_ctrls1.wrQLenPdf::16                   124                       # What write queue length does an incoming req see
system.mem_ctrls1.wrQLenPdf::17                   364                       # What write queue length does an incoming req see
system.mem_ctrls1.wrQLenPdf::18                   386                       # What write queue length does an incoming req see
system.mem_ctrls1.wrQLenPdf::19                   405                       # What write queue length does an incoming req see
system.mem_ctrls1.wrQLenPdf::20                   393                       # What write queue length does an incoming req see
system.mem_ctrls1.wrQLenPdf::21                   376                       # What write queue length does an incoming req see
system.mem_ctrls1.wrQLenPdf::22                   393                       # What write queue length does an incoming req see
system.mem_ctrls1.wrQLenPdf::23                   392                       # What write queue length does an incoming req see
system.mem_ctrls1.wrQLenPdf::24                   406                       # What write queue length does an incoming req see
system.mem_ctrls1.wrQLenPdf::25                   435                       # What write queue length does an incoming req see
system.mem_ctrls1.wrQLenPdf::26                   396                       # What write queue length does an incoming req see
system.mem_ctrls1.wrQLenPdf::27                   377                       # What write queue length does an incoming req see
system.mem_ctrls1.wrQLenPdf::28                   375                       # What write queue length does an incoming req see
system.mem_ctrls1.wrQLenPdf::29                   379                       # What write queue length does an incoming req see
system.mem_ctrls1.wrQLenPdf::30                   374                       # What write queue length does an incoming req see
system.mem_ctrls1.wrQLenPdf::31                   367                       # What write queue length does an incoming req see
system.mem_ctrls1.wrQLenPdf::32                   365                       # What write queue length does an incoming req see
system.mem_ctrls1.wrQLenPdf::33                    64                       # What write queue length does an incoming req see
system.mem_ctrls1.wrQLenPdf::34                    52                       # What write queue length does an incoming req see
system.mem_ctrls1.wrQLenPdf::35                    48                       # What write queue length does an incoming req see
system.mem_ctrls1.wrQLenPdf::36                    41                       # What write queue length does an incoming req see
system.mem_ctrls1.wrQLenPdf::37                    36                       # What write queue length does an incoming req see
system.mem_ctrls1.wrQLenPdf::38                    36                       # What write queue length does an incoming req see
system.mem_ctrls1.wrQLenPdf::39                    40                       # What write queue length does an incoming req see
system.mem_ctrls1.wrQLenPdf::40                    43                       # What write queue length does an incoming req see
system.mem_ctrls1.wrQLenPdf::41                    44                       # What write queue length does an incoming req see
system.mem_ctrls1.wrQLenPdf::42                    42                       # What write queue length does an incoming req see
system.mem_ctrls1.wrQLenPdf::43                    37                       # What write queue length does an incoming req see
system.mem_ctrls1.wrQLenPdf::44                    33                       # What write queue length does an incoming req see
system.mem_ctrls1.wrQLenPdf::45                    31                       # What write queue length does an incoming req see
system.mem_ctrls1.wrQLenPdf::46                    36                       # What write queue length does an incoming req see
system.mem_ctrls1.wrQLenPdf::47                    33                       # What write queue length does an incoming req see
system.mem_ctrls1.wrQLenPdf::48                    31                       # What write queue length does an incoming req see
system.mem_ctrls1.wrQLenPdf::49                    27                       # What write queue length does an incoming req see
system.mem_ctrls1.wrQLenPdf::50                    30                       # What write queue length does an incoming req see
system.mem_ctrls1.wrQLenPdf::51                    41                       # What write queue length does an incoming req see
system.mem_ctrls1.wrQLenPdf::52                    40                       # What write queue length does an incoming req see
system.mem_ctrls1.wrQLenPdf::53                    41                       # What write queue length does an incoming req see
system.mem_ctrls1.wrQLenPdf::54                    31                       # What write queue length does an incoming req see
system.mem_ctrls1.wrQLenPdf::55                    34                       # What write queue length does an incoming req see
system.mem_ctrls1.wrQLenPdf::56                    32                       # What write queue length does an incoming req see
system.mem_ctrls1.wrQLenPdf::57                    33                       # What write queue length does an incoming req see
system.mem_ctrls1.wrQLenPdf::58                    35                       # What write queue length does an incoming req see
system.mem_ctrls1.wrQLenPdf::59                    27                       # What write queue length does an incoming req see
system.mem_ctrls1.wrQLenPdf::60                    26                       # What write queue length does an incoming req see
system.mem_ctrls1.wrQLenPdf::61                    22                       # What write queue length does an incoming req see
system.mem_ctrls1.wrQLenPdf::62                    32                       # What write queue length does an incoming req see
system.mem_ctrls1.wrQLenPdf::63                   100                       # What write queue length does an incoming req see
system.mem_ctrls1.bytesPerActivate::samples         3236                       # Bytes accessed per row activation
system.mem_ctrls1.bytesPerActivate::mean   256.217553                       # Bytes accessed per row activation
system.mem_ctrls1.bytesPerActivate::gmean   170.147089                       # Bytes accessed per row activation
system.mem_ctrls1.bytesPerActivate::stdev   249.910796                       # Bytes accessed per row activation
system.mem_ctrls1.bytesPerActivate::0-127         1149     35.51%     35.51% # Bytes accessed per row activation
system.mem_ctrls1.bytesPerActivate::128-255          804     24.85%     60.35% # Bytes accessed per row activation
system.mem_ctrls1.bytesPerActivate::256-383          440     13.60%     73.95% # Bytes accessed per row activation
system.mem_ctrls1.bytesPerActivate::384-511          380     11.74%     85.69% # Bytes accessed per row activation
system.mem_ctrls1.bytesPerActivate::512-639          187      5.78%     91.47% # Bytes accessed per row activation
system.mem_ctrls1.bytesPerActivate::640-767           61      1.89%     93.36% # Bytes accessed per row activation
system.mem_ctrls1.bytesPerActivate::768-895           31      0.96%     94.31% # Bytes accessed per row activation
system.mem_ctrls1.bytesPerActivate::896-1023           23      0.71%     95.02% # Bytes accessed per row activation
system.mem_ctrls1.bytesPerActivate::1024-1151          161      4.98%    100.00% # Bytes accessed per row activation
system.mem_ctrls1.bytesPerActivate::total         3236                       # Bytes accessed per row activation
system.mem_ctrls1.rdPerTurnAround::samples          349                       # Reads before turning the bus around for writes
system.mem_ctrls1.rdPerTurnAround::mean     15.335244                       # Reads before turning the bus around for writes
system.mem_ctrls1.rdPerTurnAround::stdev    10.875970                       # Reads before turning the bus around for writes
system.mem_ctrls1.rdPerTurnAround::0-3             67     19.20%     19.20% # Reads before turning the bus around for writes
system.mem_ctrls1.rdPerTurnAround::4-7             12      3.44%     22.64% # Reads before turning the bus around for writes
system.mem_ctrls1.rdPerTurnAround::8-11            22      6.30%     28.94% # Reads before turning the bus around for writes
system.mem_ctrls1.rdPerTurnAround::12-15           12      3.44%     32.38% # Reads before turning the bus around for writes
system.mem_ctrls1.rdPerTurnAround::16-19          165     47.28%     79.66% # Reads before turning the bus around for writes
system.mem_ctrls1.rdPerTurnAround::20-23           27      7.74%     87.39% # Reads before turning the bus around for writes
system.mem_ctrls1.rdPerTurnAround::24-27           19      5.44%     92.84% # Reads before turning the bus around for writes
system.mem_ctrls1.rdPerTurnAround::28-31            9      2.58%     95.42% # Reads before turning the bus around for writes
system.mem_ctrls1.rdPerTurnAround::32-35            4      1.15%     96.56% # Reads before turning the bus around for writes
system.mem_ctrls1.rdPerTurnAround::36-39            4      1.15%     97.71% # Reads before turning the bus around for writes
system.mem_ctrls1.rdPerTurnAround::40-43            1      0.29%     97.99% # Reads before turning the bus around for writes
system.mem_ctrls1.rdPerTurnAround::44-47            1      0.29%     98.28% # Reads before turning the bus around for writes
system.mem_ctrls1.rdPerTurnAround::48-51            2      0.57%     98.85% # Reads before turning the bus around for writes
system.mem_ctrls1.rdPerTurnAround::52-55            1      0.29%     99.14% # Reads before turning the bus around for writes
system.mem_ctrls1.rdPerTurnAround::68-71            1      0.29%     99.43% # Reads before turning the bus around for writes
system.mem_ctrls1.rdPerTurnAround::72-75            1      0.29%     99.71% # Reads before turning the bus around for writes
system.mem_ctrls1.rdPerTurnAround::76-79            1      0.29%    100.00% # Reads before turning the bus around for writes
system.mem_ctrls1.rdPerTurnAround::total          349                       # Reads before turning the bus around for writes
system.mem_ctrls1.wrPerTurnAround::samples          349                       # Writes before turning the bus around for reads
system.mem_ctrls1.wrPerTurnAround::mean     21.750716                       # Writes before turning the bus around for reads
system.mem_ctrls1.wrPerTurnAround::gmean    19.539111                       # Writes before turning the bus around for reads
system.mem_ctrls1.wrPerTurnAround::stdev    14.083017                       # Writes before turning the bus around for reads
system.mem_ctrls1.wrPerTurnAround::16-17          249     71.35%     71.35% # Writes before turning the bus around for reads
system.mem_ctrls1.wrPerTurnAround::18-19           19      5.44%     76.79% # Writes before turning the bus around for reads
system.mem_ctrls1.wrPerTurnAround::20-21            5      1.43%     78.22% # Writes before turning the bus around for reads
system.mem_ctrls1.wrPerTurnAround::22-23            4      1.15%     79.37% # Writes before turning the bus around for reads
system.mem_ctrls1.wrPerTurnAround::24-25            3      0.86%     80.23% # Writes before turning the bus around for reads
system.mem_ctrls1.wrPerTurnAround::26-27            4      1.15%     81.38% # Writes before turning the bus around for reads
system.mem_ctrls1.wrPerTurnAround::28-29           11      3.15%     84.53% # Writes before turning the bus around for reads
system.mem_ctrls1.wrPerTurnAround::30-31            8      2.29%     86.82% # Writes before turning the bus around for reads
system.mem_ctrls1.wrPerTurnAround::32-33            8      2.29%     89.11% # Writes before turning the bus around for reads
system.mem_ctrls1.wrPerTurnAround::34-35            1      0.29%     89.40% # Writes before turning the bus around for reads
system.mem_ctrls1.wrPerTurnAround::36-37            5      1.43%     90.83% # Writes before turning the bus around for reads
system.mem_ctrls1.wrPerTurnAround::40-41            6      1.72%     92.55% # Writes before turning the bus around for reads
system.mem_ctrls1.wrPerTurnAround::42-43            2      0.57%     93.12% # Writes before turning the bus around for reads
system.mem_ctrls1.wrPerTurnAround::44-45            2      0.57%     93.70% # Writes before turning the bus around for reads
system.mem_ctrls1.wrPerTurnAround::46-47            2      0.57%     94.27% # Writes before turning the bus around for reads
system.mem_ctrls1.wrPerTurnAround::48-49            6      1.72%     95.99% # Writes before turning the bus around for reads
system.mem_ctrls1.wrPerTurnAround::50-51            2      0.57%     96.56% # Writes before turning the bus around for reads
system.mem_ctrls1.wrPerTurnAround::52-53            1      0.29%     96.85% # Writes before turning the bus around for reads
system.mem_ctrls1.wrPerTurnAround::56-57            1      0.29%     97.13% # Writes before turning the bus around for reads
system.mem_ctrls1.wrPerTurnAround::60-61            1      0.29%     97.42% # Writes before turning the bus around for reads
system.mem_ctrls1.wrPerTurnAround::64-65            1      0.29%     97.71% # Writes before turning the bus around for reads
system.mem_ctrls1.wrPerTurnAround::70-71            1      0.29%     97.99% # Writes before turning the bus around for reads
system.mem_ctrls1.wrPerTurnAround::76-77            1      0.29%     98.28% # Writes before turning the bus around for reads
system.mem_ctrls1.wrPerTurnAround::78-79            1      0.29%     98.57% # Writes before turning the bus around for reads
system.mem_ctrls1.wrPerTurnAround::80-81            1      0.29%     98.85% # Writes before turning the bus around for reads
system.mem_ctrls1.wrPerTurnAround::96-97            2      0.57%     99.43% # Writes before turning the bus around for reads
system.mem_ctrls1.wrPerTurnAround::110-111            1      0.29%     99.71% # Writes before turning the bus around for reads
system.mem_ctrls1.wrPerTurnAround::120-121            1      0.29%    100.00% # Writes before turning the bus around for reads
system.mem_ctrls1.wrPerTurnAround::total          349                       # Writes before turning the bus around for reads
system.mem_ctrls1.totQLat                   448042250                       # Total ticks spent queuing
system.mem_ctrls1.totMemAccLat              548617250                       # Total ticks spent from burst creation until serviced by the DRAM
system.mem_ctrls1.totBusLat                  26820000                       # Total ticks spent in databus transfers
system.mem_ctrls1.avgQLat                    83527.64                       # Average queueing delay per DRAM burst
system.mem_ctrls1.avgBusLat                   5000.00                       # Average bus latency per DRAM burst
system.mem_ctrls1.avgMemAccLat              102277.64                       # Average memory access latency per DRAM burst
system.mem_ctrls1.avgRdBW                        1.06                       # Average DRAM read bandwidth in MiByte/s
system.mem_ctrls1.avgWrBW                        1.49                       # Average achieved write bandwidth in MiByte/s
system.mem_ctrls1.avgRdBWSys                     1.09                       # Average system read bandwidth in MiByte/s
system.mem_ctrls1.avgWrBWSys                     1.50                       # Average system write bandwidth in MiByte/s
system.mem_ctrls1.peakBW                     12800.00                       # Theoretical peak bandwidth in MiByte/s
system.mem_ctrls1.busUtil                        0.02                       # Data bus utilization in percentage
system.mem_ctrls1.busUtilRead                    0.01                       # Data bus utilization in percentage for reads
system.mem_ctrls1.busUtilWrite                   0.01                       # Data bus utilization in percentage for writes
system.mem_ctrls1.avgRdQLen                      1.00                       # Average read queue length when enqueuing
system.mem_ctrls1.avgWrQLen                     25.32                       # Average write queue length when enqueuing
system.mem_ctrls1.readRowHits                    3679                       # Number of row buffer hits during reads
system.mem_ctrls1.writeRowHits                   6040                       # Number of row buffer hits during writes
system.mem_ctrls1.readRowHitRate                68.59                       # Row buffer hit rate for reads
system.mem_ctrls1.writeRowHitRate               79.43                       # Row buffer hit rate for writes
system.mem_ctrls1.avgGap                  22042319.56                       # Average gap between requests
system.mem_ctrls1.pageHitRate                   74.95                       # Row buffer hit rate, read and write combined
system.mem_ctrls1_0.actEnergy                49437360                       # Energy for activate commands per rank (pJ)
system.mem_ctrls1_0.preEnergy                26276580                       # Energy for precharge commands per rank (pJ)
system.mem_ctrls1_0.readEnergy              140358120                       # Energy for read commands per rank (pJ)
system.mem_ctrls1_0.writeEnergy              40147020                       # Energy for write commands per rank (pJ)
system.mem_ctrls1_0.refreshEnergy        5513320800.000001                       # Energy for refresh commands per rank (pJ)
system.mem_ctrls1_0.actBackEnergy          1730653380                       # Energy for active background per rank (pJ)
system.mem_ctrls1_0.preBackEnergy           332550720                       # Energy for precharge background per rank (pJ)
system.mem_ctrls1_0.actPowerDownEnergy    13252734270                       # Energy for active power-down per rank (pJ)
system.mem_ctrls1_0.prePowerDownEnergy     7879920000                       # Energy for precharge power-down per rank (pJ)
system.mem_ctrls1_0.selfRefreshEnergy    1319570356935                       # Energy for self refresh per rank (pJ)
system.mem_ctrls1_0.totalEnergy          1348536943755                       # Total energy per rank (pJ)
system.mem_ctrls1_0.averagePower           243.088997                       # Core power per rank (mW)
system.mem_ctrls1_0.totalIdleTime        277520276250                       # Total Idle time Per DRAM Rank
system.mem_ctrls1_0.memoryStateTime::IDLE    163065750                       # Time in different power states
system.mem_ctrls1_0.memoryStateTime::REF    448714000                       # Time in different power states
system.mem_ctrls1_0.memoryStateTime::SREF 318946737250                       # Time in different power states
system.mem_ctrls1_0.memoryStateTime::PRE_PDN   4107927750                       # Time in different power states
system.mem_ctrls1_0.memoryStateTime::ACT    548669000                       # Time in different power states
system.mem_ctrls1_0.memoryStateTime::ACT_PDN   4691925250                       # Time in different power states
system.mem_ctrls1_1.actEnergy                43882440                       # Energy for activate commands per rank (pJ)
system.mem_ctrls1_1.preEnergy                23324070                       # Energy for precharge commands per rank (pJ)
system.mem_ctrls1_1.readEnergy              139158600                       # Energy for read commands per rank (pJ)
system.mem_ctrls1_1.writeEnergy              41086620                       # Energy for write commands per rank (pJ)
system.mem_ctrls1_1.refreshEnergy        4902368640.000001                       # Energy for refresh commands per rank (pJ)
system.mem_ctrls1_1.actBackEnergy          1612450200                       # Energy for active background per rank (pJ)
system.mem_ctrls1_1.preBackEnergy           276624000                       # Energy for precharge background per rank (pJ)
system.mem_ctrls1_1.actPowerDownEnergy    12390242760                       # Energy for active power-down per rank (pJ)
system.mem_ctrls1_1.prePowerDownEnergy     6600191520                       # Energy for precharge power-down per rank (pJ)
system.mem_ctrls1_1.selfRefreshEnergy    1320760390260                       # Energy for self refresh per rank (pJ)
system.mem_ctrls1_1.totalEnergy          1346790565110                       # Total energy per rank (pJ)
system.mem_ctrls1_1.averagePower           242.774193                       # Core power per rank (mW)
system.mem_ctrls1_1.totalIdleTime        289153877500                       # Total Idle time Per DRAM Rank
system.mem_ctrls1_1.memoryStateTime::IDLE    127203500                       # Time in different power states
system.mem_ctrls1_1.memoryStateTime::REF    403936000                       # Time in different power states
system.mem_ctrls1_1.memoryStateTime::SREF 319645598000                       # Time in different power states
system.mem_ctrls1_1.memoryStateTime::PRE_PDN   3596257250                       # Time in different power states
system.mem_ctrls1_1.memoryStateTime::ACT    560925500                       # Time in different power states
system.mem_ctrls1_1.memoryStateTime::ACT_PDN   4346544750                       # Time in different power states
system.mem_ctrls2.pwrStateResidencyTicks::UNDEFINED 5547503006000                       # Cumulative time (in ticks) in various power states
system.mem_ctrls2.bytes_read::ruby.dir_cntrl2       354176                       # Number of bytes read from this memory
system.mem_ctrls2.bytes_read::total            354176                       # Number of bytes read from this memory
system.mem_ctrls2.bytes_written::ruby.dir_cntrl2       475648                       # Number of bytes written to this memory
system.mem_ctrls2.bytes_written::total         475648                       # Number of bytes written to this memory
system.mem_ctrls2.num_reads::ruby.dir_cntrl2         5534                       # Number of read requests responded to by this memory
system.mem_ctrls2.num_reads::total               5534                       # Number of read requests responded to by this memory
system.mem_ctrls2.num_writes::ruby.dir_cntrl2         7432                       # Number of write requests responded to by this memory
system.mem_ctrls2.num_writes::total              7432                       # Number of write requests responded to by this memory
system.mem_ctrls2.bw_read::ruby.dir_cntrl2      1088569                       # Total read bandwidth from this memory (bytes/s)
system.mem_ctrls2.bw_read::total              1088569                       # Total read bandwidth from this memory (bytes/s)
system.mem_ctrls2.bw_write::ruby.dir_cntrl2      1461916                       # Write bandwidth from this memory (bytes/s)
system.mem_ctrls2.bw_write::total             1461916                       # Write bandwidth from this memory (bytes/s)
system.mem_ctrls2.bw_total::ruby.dir_cntrl2      2550485                       # Total bandwidth to/from this memory (bytes/s)
system.mem_ctrls2.bw_total::total             2550485                       # Total bandwidth to/from this memory (bytes/s)
system.mem_ctrls2.readReqs                       5534                       # Number of read requests accepted
system.mem_ctrls2.writeReqs                      7432                       # Number of write requests accepted
system.mem_ctrls2.readBursts                     5534                       # Number of DRAM read bursts, including those serviced by the write queue
system.mem_ctrls2.writeBursts                    7432                       # Number of DRAM write bursts, including those merged in the write queue
system.mem_ctrls2.bytesReadDRAM                342912                       # Total number of bytes read from DRAM
system.mem_ctrls2.bytesReadWrQ                  11264                       # Total number of bytes read from write queue
system.mem_ctrls2.bytesWritten                 475328                       # Total number of bytes written to DRAM
system.mem_ctrls2.bytesReadSys                 354176                       # Total read bytes from the system interface side
system.mem_ctrls2.bytesWrittenSys              475648                       # Total written bytes from the system interface side
system.mem_ctrls2.servicedByWrQ                   176                       # Number of DRAM read bursts serviced by the write queue
system.mem_ctrls2.mergedWrBursts                    0                       # Number of DRAM write bursts merged with an existing one
system.mem_ctrls2.neitherReadNorWriteReqs            0                       # Number of requests that are neither read nor write
system.mem_ctrls2.perBankRdBursts::0              368                       # Per bank write bursts
system.mem_ctrls2.perBankRdBursts::1              363                       # Per bank write bursts
system.mem_ctrls2.perBankRdBursts::2              339                       # Per bank write bursts
system.mem_ctrls2.perBankRdBursts::3              403                       # Per bank write bursts
system.mem_ctrls2.perBankRdBursts::4              355                       # Per bank write bursts
system.mem_ctrls2.perBankRdBursts::5              285                       # Per bank write bursts
system.mem_ctrls2.perBankRdBursts::6              312                       # Per bank write bursts
system.mem_ctrls2.perBankRdBursts::7              272                       # Per bank write bursts
system.mem_ctrls2.perBankRdBursts::8              167                       # Per bank write bursts
system.mem_ctrls2.perBankRdBursts::9              246                       # Per bank write bursts
system.mem_ctrls2.perBankRdBursts::10             339                       # Per bank write bursts
system.mem_ctrls2.perBankRdBursts::11             392                       # Per bank write bursts
system.mem_ctrls2.perBankRdBursts::12             444                       # Per bank write bursts
system.mem_ctrls2.perBankRdBursts::13             262                       # Per bank write bursts
system.mem_ctrls2.perBankRdBursts::14             398                       # Per bank write bursts
system.mem_ctrls2.perBankRdBursts::15             413                       # Per bank write bursts
system.mem_ctrls2.perBankWrBursts::0              523                       # Per bank write bursts
system.mem_ctrls2.perBankWrBursts::1              484                       # Per bank write bursts
system.mem_ctrls2.perBankWrBursts::2              423                       # Per bank write bursts
system.mem_ctrls2.perBankWrBursts::3              319                       # Per bank write bursts
system.mem_ctrls2.perBankWrBursts::4              267                       # Per bank write bursts
system.mem_ctrls2.perBankWrBursts::5              309                       # Per bank write bursts
system.mem_ctrls2.perBankWrBursts::6              277                       # Per bank write bursts
system.mem_ctrls2.perBankWrBursts::7              475                       # Per bank write bursts
system.mem_ctrls2.perBankWrBursts::8              679                       # Per bank write bursts
system.mem_ctrls2.perBankWrBursts::9              667                       # Per bank write bursts
system.mem_ctrls2.perBankWrBursts::10             643                       # Per bank write bursts
system.mem_ctrls2.perBankWrBursts::11             600                       # Per bank write bursts
system.mem_ctrls2.perBankWrBursts::12             528                       # Per bank write bursts
system.mem_ctrls2.perBankWrBursts::13             432                       # Per bank write bursts
system.mem_ctrls2.perBankWrBursts::14             404                       # Per bank write bursts
system.mem_ctrls2.perBankWrBursts::15             397                       # Per bank write bursts
system.mem_ctrls2.numRdRetry                        0                       # Number of times read queue was full causing retry
system.mem_ctrls2.numWrRetry                       62                       # Number of times write queue was full causing retry
system.mem_ctrls2.totGap                 288898026500                       # Total gap between requests
[...]
system.ruby.L1Cache_Controller.IM.Data_all_Acks::total       346978                      
system.ruby.L1Cache_Controller.SM.Fwd_GETX |       90573    100.00%    100.00% |           0      0.00%    100.00% |           0      0.00%    100.00% |           0      0.00%    100.00% |           0      0.00%    100.00% |           0      0.00%    100.00% |           0      0.00%    100.00% |           0      0.00%    100.00%
system.ruby.L1Cache_Controller.SM.Fwd_GETX::total        90573                      
system.ruby.L1Cache_Controller.M_I.WB_Ack |      386626    100.00%    100.00% |           0      0.00%    100.00% |           0      0.00%    100.00% |           0      0.00%    100.00% |           0      0.00%    100.00% |           0      0.00%    100.00% |           0      0.00%    100.00% |           0      0.00%    100.00%
system.ruby.L1Cache_Controller.M_I.WB_Ack::total       386626                      
system.ruby.L1Cache_Controller.PF_IS.Load |         105    100.00%    100.00% |           0      0.00%    100.00% |           0      0.00%    100.00% |           0      0.00%    100.00% |           0      0.00%    100.00% |           0      0.00%    100.00% |           0      0.00%    100.00% |           0      0.00%    100.00%
system.ruby.L1Cache_Controller.PF_IS.Load::total          105                      
system.ruby.L1Cache_Controller.PF_IS.Ifetch |          78    100.00%    100.00% |           0      0.00%    100.00% |           0      0.00%    100.00% |           0      0.00%    100.00% |           0      0.00%    100.00% |           0      0.00%    100.00% |           0      0.00%    100.00% |           0      0.00%    100.00%
system.ruby.L1Cache_Controller.PF_IS.Ifetch::total           78                      
system.ruby.L1Cache_Controller.PF_IS.Data_Exclusive |       31037    100.00%    100.00% |           0      0.00%    100.00% |           0      0.00%    100.00% |           0      0.00%    100.00% |           0      0.00%    100.00% |           0      0.00%    100.00% |           0      0.00%    100.00% |           0      0.00%    100.00%
system.ruby.L1Cache_Controller.PF_IS.Data_Exclusive::total        31037                      
system.ruby.L1Cache_Controller.PF_IS.Data_all_Acks |        7408    100.00%    100.00% |           0      0.00%    100.00% |           0      0.00%    100.00% |           0      0.00%    100.00% |           0      0.00%    100.00% |           0      0.00%    100.00% |           0      0.00%    100.00% |           0      0.00%    100.00%
system.ruby.L1Cache_Controller.PF_IS.Data_all_Acks::total         7408                      
system.ruby.L1Cache_Controller.PF_IM.Store |         460    100.00%    100.00% |           0      0.00%    100.00% |           0      0.00%    100.00% |           0      0.00%    100.00% |           0      0.00%    100.00% |           0      0.00%    100.00% |           0      0.00%    100.00% |           0      0.00%    100.00%
system.ruby.L1Cache_Controller.PF_IM.Store::total          460                      
system.ruby.L1Cache_Controller.PF_IM.Data_all_Acks |       39665    100.00%    100.00% |           0      0.00%    100.00% |           0      0.00%    100.00% |           0      0.00%    100.00% |           0      0.00%    100.00% |           0      0.00%    100.00% |           0      0.00%    100.00% |           0      0.00%    100.00%
system.ruby.L1Cache_Controller.PF_IM.Data_all_Acks::total        39665                      
system.ruby.L1Cache_Controller.PF_IM.PF_Store |           1    100.00%    100.00% |           0      0.00%    100.00% |           0      0.00%    100.00% |           0      0.00%    100.00% |           0      0.00%    100.00% |           0      0.00%    100.00% |           0      0.00%    100.00% |           0      0.00%    100.00%
system.ruby.L1Cache_Controller.PF_IM.PF_Store::total            1                      
system.ruby.L2Cache_Controller.L1_GET_INSTR |       59834      8.02%      8.02% |       55101      7.38%     15.40% |       52925      7.09%     22.49% |      153150     20.52%     43.01% |      150401     20.15%     63.16% |      159189     21.33%     84.49% |       63216      8.47%     92.96% |       52536      7.04%    100.00%
system.ruby.L2Cache_Controller.L1_GET_INSTR::total       746352                      
system.ruby.L2Cache_Controller.L1_GETS   |       69334     15.68%     15.68% |       53479     12.09%     27.77% |       55379     12.52%     40.29% |       54853     12.40%     52.69% |       52888     11.96%     64.65% |       50866     11.50%     76.15% |       51194     11.57%     87.72% |       54316     12.28%    100.00%
system.ruby.L2Cache_Controller.L1_GETS::total       442309                      
system.ruby.L2Cache_Controller.L1_GETX   |       53858     13.93%     13.93% |       46053     11.91%     25.84% |       48968     12.66%     38.51% |       48159     12.46%     50.96% |       46448     12.01%     62.97% |       48527     12.55%     75.53% |       46923     12.14%     87.66% |       47707     12.34%    100.00%
system.ruby.L2Cache_Controller.L1_GETX::total       386643                      
system.ruby.L2Cache_Controller.L1_PUTX   |      167425     11.28%     11.28% |      144668      9.74%     21.02% |      146385      9.86%     30.88% |      245213     16.52%     47.40% |      238775     16.08%     63.48% |      248483     16.74%     80.22% |      150966     10.17%     90.39% |      142664      9.61%    100.00%
system.ruby.L2Cache_Controller.L1_PUTX::total      1484579                      
system.ruby.L2Cache_Controller.L2_Replacement |        4215     12.61%     12.61% |        4322     12.93%     25.54% |        4150     12.42%     37.96% |        4272     12.78%     50.74% |        4112     12.30%     63.05% |        4202     12.57%     75.62% |        4005     11.98%     87.60% |        4143     12.40%    100.00%
system.ruby.L2Cache_Controller.L2_Replacement::total        33421                      
system.ruby.L2Cache_Controller.L2_Replacement_clean |         102     14.31%     14.31% |          85     11.92%     26.23% |          93     13.04%     39.27% |          80     11.22%     50.49% |          85     11.92%     62.41% |          84     11.78%     74.19% |          94     13.18%     87.38% |          90     12.62%    100.00%
system.ruby.L2Cache_Controller.L2_Replacement_clean::total          713                      
system.ruby.L2Cache_Controller.Mem_Data  |        5691     12.85%     12.85% |        5564     12.56%     25.40% |        5534     12.49%     37.89% |        5516     12.45%     50.35% |        5490     12.39%     62.74% |        5496     12.41%     75.14% |        5503     12.42%     87.56% |        5510     12.44%    100.00%
system.ruby.L2Cache_Controller.Mem_Data::total        44304                      
system.ruby.L2Cache_Controller.Mem_Ack   |        4570     12.99%     12.99% |        4525     12.86%     25.85% |        4354     12.38%     38.23% |        4464     12.69%     50.92% |        4309     12.25%     63.17% |        4398     12.50%     75.67% |        4212     11.97%     87.64% |        4347     12.36%    100.00%
system.ruby.L2Cache_Controller.Mem_Ack::total        35179                      
system.ruby.L2Cache_Controller.WB_Data   |         135    100.00%    100.00% |           0      0.00%    100.00% |           0      0.00%    100.00% |           0      0.00%    100.00% |           0      0.00%    100.00% |           0      0.00%    100.00% |           0      0.00%    100.00% |           0      0.00%    100.00%
system.ruby.L2Cache_Controller.WB_Data::total          135                      
system.ruby.L2Cache_Controller.Ack_all   |          40     14.60%     14.60% |          38     13.87%     28.47% |          37     13.50%     41.97% |          26      9.49%     51.46% |          30     10.95%     62.41% |          28     10.22%     72.63% |          36     13.14%     85.77% |          39     14.23%    100.00%
system.ruby.L2Cache_Controller.Ack_all::total          274                      
system.ruby.L2Cache_Controller.Unblock   |      123192     14.86%     14.86% |       99530     12.01%     26.87% |      104272     12.58%     39.45% |      102985     12.43%     51.88% |       99335     11.98%     63.86% |       99390     11.99%     75.85% |       98111     11.84%     87.69% |      102022     12.31%    100.00%
system.ruby.L2Cache_Controller.Unblock::total       828837                      
system.ruby.L2Cache_Controller.MEM_Inv   |         506     24.21%     24.21% |         236     11.29%     35.50% |         222     10.62%     46.12% |         224     10.72%     56.84% |         224     10.72%     67.56% |         224     10.72%     78.28% |         226     10.81%     89.09% |         228     10.91%    100.00%
system.ruby.L2Cache_Controller.MEM_Inv::total         2090                      
system.ruby.L2Cache_Controller.NP.L1_GET_INSTR |         355     12.25%     12.25% |         375     12.94%     25.19% |         378     13.04%     38.23% |         358     12.35%     50.59% |         339     11.70%     62.28% |         349     12.04%     74.33% |         368     12.70%     87.03% |         376     12.97%    100.00%
system.ruby.L2Cache_Controller.NP.L1_GET_INSTR::total         2898                      
system.ruby.L2Cache_Controller.NP.L1_GETS |        1109     12.95%     12.95% |        1098     12.82%     25.76% |        1063     12.41%     38.17% |        1066     12.44%     50.62% |        1083     12.64%     63.26% |        1052     12.28%     75.54% |        1046     12.21%     87.75% |        1049     12.25%    100.00%
system.ruby.L2Cache_Controller.NP.L1_GETS::total         8566                      
system.ruby.L2Cache_Controller.NP.L1_GETX |        4227     12.87%     12.87% |        4091     12.46%     25.33% |        4093     12.46%     37.79% |        4092     12.46%     50.25% |        4068     12.39%     62.64% |        4095     12.47%     75.11% |        4089     12.45%     87.56% |        4085     12.44%    100.00%
system.ruby.L2Cache_Controller.NP.L1_GETX::total        32840                      
system.ruby.L2Cache_Controller.SS.L1_GET_INSTR |       59478      8.00%      8.00% |       54726      7.36%     15.36% |       52544      7.07%     22.43% |      152792     20.55%     42.98% |      150061     20.18%     63.17% |      158837     21.37%     84.53% |       62846      8.45%     92.98% |       52160      7.02%    100.00%
system.ruby.L2Cache_Controller.SS.L1_GET_INSTR::total       743444                      
system.ruby.L2Cache_Controller.SS.L1_GETS |           0      0.00%      0.00% |           2      1.74%      1.74% |          75     65.22%     66.96% |          27     23.48%     90.43% |           1      0.87%     91.30% |           3      2.61%     93.91% |           6      5.22%     99.13% |           1      0.87%    100.00%
system.ruby.L2Cache_Controller.SS.L1_GETS::total          115                      
system.ruby.L2Cache_Controller.SS.L1_PUTX |       59834      8.02%      8.02% |       55103      7.38%     15.40% |       53000      7.10%     22.50% |      153178     20.52%     43.02% |      150402     20.15%     63.17% |      159192     21.33%     84.49% |       63222      8.47%     92.96% |       52537      7.04%    100.00%
system.ruby.L2Cache_Controller.SS.L1_PUTX::total       746468                      
system.ruby.L2Cache_Controller.SS.L2_Replacement_clean |          39     15.06%     15.06% |          36     13.90%     28.96% |          35     13.51%     42.47% |          25      9.65%     52.12% |          27     10.42%     62.55% |          27     10.42%     72.97% |          33     12.74%     85.71% |          37     14.29%    100.00%
system.ruby.L2Cache_Controller.SS.L2_Replacement_clean::total          259                      
system.ruby.L2Cache_Controller.M.L1_GET_INSTR |           1     10.00%     10.00% |           0      0.00%     10.00% |           3     30.00%     40.00% |           0      0.00%     40.00% |           1     10.00%     50.00% |           3     30.00%     80.00% |           2     20.00%    100.00% |           0      0.00%    100.00%
system.ruby.L2Cache_Controller.M.L1_GET_INSTR::total           10                      
system.ruby.L2Cache_Controller.M.L1_GETS |       68225     15.73%     15.73% |       52379     12.08%     27.81% |       54241     12.51%     40.32% |       53760     12.40%     52.72% |       51804     11.95%     64.67% |       49811     11.49%     76.15% |       50142     11.56%     87.72% |       53266     12.28%    100.00%
system.ruby.L2Cache_Controller.M.L1_GETS::total       433628                      
system.ruby.L2Cache_Controller.M.L1_GETX |       34166     12.98%     12.98% |       32000     12.16%     25.14% |       33991     12.91%     38.05% |       33119     12.58%     50.63% |       31421     11.94%     62.57% |       34334     13.04%     75.61% |       32470     12.34%     87.95% |       31729     12.05%    100.00%
system.ruby.L2Cache_Controller.M.L1_GETX::total       263230                      
system.ruby.L2Cache_Controller.M.L2_Replacement |        4215     12.61%     12.61% |        4322     12.93%     25.54% |        4150     12.42%     37.96% |        4272     12.78%     50.74% |        4112     12.30%     63.05% |        4202     12.57%     75.62% |        4005     11.98%     87.60% |        4143     12.40%    100.00%
system.ruby.L2Cache_Controller.M.L2_Replacement::total        33421                      
system.ruby.L2Cache_Controller.M.L2_Replacement_clean |          63     13.88%     13.88% |          49     10.79%     24.67% |          58     12.78%     37.44% |          55     12.11%     49.56% |          58     12.78%     62.33% |          57     12.56%     74.89% |          61     13.44%     88.33% |          53     11.67%    100.00%
system.ruby.L2Cache_Controller.M.L2_Replacement_clean::total          454                      
system.ruby.L2Cache_Controller.M.MEM_Inv |         117     13.07%     13.07% |         116     12.96%     26.03% |         109     12.18%     38.21% |         111     12.40%     50.61% |         109     12.18%     62.79% |         111     12.40%     75.20% |         110     12.29%     87.49% |         112     12.51%    100.00%
system.ruby.L2Cache_Controller.M.MEM_Inv::total          895                      
system.ruby.L2Cache_Controller.MT.L1_GETX |       15465     17.07%     17.07% |        9962     11.00%     28.07% |       10884     12.02%     40.09% |       10948     12.09%     52.18% |       10959     12.10%     64.28% |       10098     11.15%     75.43% |       10364     11.44%     86.87% |       11893     13.13%    100.00%
system.ruby.L2Cache_Controller.MT.L1_GETX::total        90573                      
system.ruby.L2Cache_Controller.MT.L1_PUTX |      107591     14.58%     14.58% |       89565     12.13%     26.71% |       93385     12.65%     39.36% |       92035     12.47%     51.83% |       88373     11.97%     63.80% |       89291     12.10%     75.90% |       87744     11.89%     87.79% |       90127     12.21%    100.00%
system.ruby.L2Cache_Controller.MT.L1_PUTX::total       738111                      
system.ruby.L2Cache_Controller.MT.MEM_Inv |         136     90.67%     90.67% |           2      1.33%     92.00% |           2      1.33%     93.33% |           1      0.67%     94.00% |           3      2.00%     96.00% |           1      0.67%     96.67% |           3      2.00%     98.67% |           2      1.33%    100.00%
system.ruby.L2Cache_Controller.MT.MEM_Inv::total          150                      
system.ruby.L2Cache_Controller.M_I.Mem_Ack |        4570     12.99%     12.99% |        4525     12.86%     25.85% |        4354     12.38%     38.23% |        4464     12.69%     50.92% |        4309     12.25%     63.17% |        4398     12.50%     75.67% |        4212     11.97%     87.64% |        4347     12.36%    100.00%
system.ruby.L2Cache_Controller.M_I.Mem_Ack::total        35179                      
system.ruby.L2Cache_Controller.M_I.MEM_Inv |         117     13.07%     13.07% |         116     12.96%     26.03% |         109     12.18%     38.21% |         111     12.40%     50.61% |         109     12.18%     62.79% |         111     12.40%     75.20% |         110     12.29%     87.49% |         112     12.51%    100.00%
system.ruby.L2Cache_Controller.M_I.MEM_Inv::total          895                      
system.ruby.L2Cache_Controller.MT_I.WB_Data |         135    100.00%    100.00% |           0      0.00%    100.00% |           0      0.00%    100.00% |           0      0.00%    100.00% |           0      0.00%    100.00% |           0      0.00%    100.00% |           0      0.00%    100.00% |           0      0.00%    100.00%
system.ruby.L2Cache_Controller.MT_I.WB_Data::total          135                      
system.ruby.L2Cache_Controller.MT_I.Ack_all |           1      6.67%      6.67% |           2     13.33%     20.00% |           2     13.33%     33.33% |           1      6.67%     40.00% |           3     20.00%     60.00% |           1      6.67%     66.67% |           3     20.00%     86.67% |           2     13.33%    100.00%
system.ruby.L2Cache_Controller.MT_I.Ack_all::total           15                      
system.ruby.L2Cache_Controller.MT_I.MEM_Inv |         136     90.67%     90.67% |           2      1.33%     92.00% |           2      1.33%     93.33% |           1      0.67%     94.00% |           3      2.00%     96.00% |           1      0.67%     96.67% |           3      2.00%     98.67% |           2      1.33%    100.00%
system.ruby.L2Cache_Controller.MT_I.MEM_Inv::total          150                      
system.ruby.L2Cache_Controller.I_I.Ack_all |          39     15.06%     15.06% |          36     13.90%     28.96% |          35     13.51%     42.47% |          25      9.65%     52.12% |          27     10.42%     62.55% |          27     10.42%     72.97% |          33     12.74%     85.71% |          37     14.29%    100.00%
system.ruby.L2Cache_Controller.I_I.Ack_all::total          259                      
system.ruby.L2Cache_Controller.ISS.Mem_Data |        1109     12.95%     12.95% |        1098     12.82%     25.76% |        1063     12.41%     38.17% |        1066     12.44%     50.62% |        1083     12.64%     63.26% |        1052     12.28%     75.54% |        1046     12.21%     87.75% |        1049     12.25%    100.00%
system.ruby.L2Cache_Controller.ISS.Mem_Data::total         8566                      
system.ruby.L2Cache_Controller.IS.Mem_Data |         355     12.25%     12.25% |         375     12.94%     25.19% |         378     13.04%     38.23% |         358     12.35%     50.59% |         339     11.70%     62.28% |         349     12.04%     74.33% |         368     12.70%     87.03% |         376     12.97%    100.00%
system.ruby.L2Cache_Controller.IS.Mem_Data::total         2898                      
system.ruby.L2Cache_Controller.IM.Mem_Data |        4227     12.87%     12.87% |        4091     12.46%     25.33% |        4093     12.46%     37.79% |        4092     12.46%     50.25% |        4068     12.39%     62.64% |        4095     12.47%     75.11% |        4089     12.45%     87.56% |        4085     12.44%    100.00%
system.ruby.L2Cache_Controller.IM.Mem_Data::total        32840                      
system.ruby.L2Cache_Controller.MT_MB.Unblock |      123192     14.86%     14.86% |       99530     12.01%     26.87% |      104272     12.58%     39.45% |      102985     12.43%     51.88% |       99335     11.98%     63.86% |       99390     11.99%     75.85% |       98111     11.84%     87.69% |      102022     12.31%    100.00%
system.ruby.L2Cache_Controller.MT_MB.Unblock::total       828837                      

---------- End Simulation Statistics   ----------
