
---------- Begin Simulation Statistics ----------
sim_seconds                                  0.529262                       # Number of seconds simulated
sim_ticks                                529262473000                       # Number of ticks simulated
final_tick                               529262473000                       # Number of ticks from beginning of simulation (restored from checkpoints and never reset)
sim_freq                                 1000000000000                       # Frequency of simulated ticks
host_inst_rate                                1745912                       # Simulator instruction rate (inst/s)
host_op_rate                                  1979555                       # Simulator op (including micro ops) rate (op/s)
host_tick_rate                             1491897428                       # Simulator tick rate (ticks/s)
host_mem_usage                                 739660                       # Number of bytes of host memory used
host_seconds                                   354.76                       # Real time elapsed on the host
sim_insts                                   619376159                       # Number of instructions simulated
sim_ops                                     702262859                       # Number of ops (including micro ops) simulated
system.voltage_domain.voltage                       1                       # Voltage in Volts
system.clk_domain.clock                          1000                       # Clock period in ticks
system.mem_ctrls.pwrStateResidencyTicks::UNDEFINED 529262473000                       # Cumulative time (in ticks) in various power states
system.mem_ctrls.bytes_read::cpu0.inst          75584                       # Number of bytes read from this memory
system.mem_ctrls.bytes_read::cpu0.data        4532480                       # Number of bytes read from this memory
system.mem_ctrls.bytes_read::cpu1.inst           6016                       # Number of bytes read from this memory
system.mem_ctrls.bytes_read::cpu1.data        2573632                       # Number of bytes read from this memory
system.mem_ctrls.bytes_read::total            7187712                       # Number of bytes read from this memory
system.mem_ctrls.bytes_inst_read::cpu0.inst        75584                       # Number of instructions bytes read from this memory
system.mem_ctrls.bytes_inst_read::cpu1.inst         6016                       # Number of instructions bytes read from this memory
system.mem_ctrls.bytes_inst_read::total         81600                       # Number of instructions bytes read from this memory
system.mem_ctrls.bytes_written::writebacks      3108736                       # Number of bytes written to this memory
system.mem_ctrls.bytes_written::total         3108736                       # Number of bytes written to this memory
system.mem_ctrls.num_reads::cpu0.inst            1181                       # Number of read requests responded to by this memory
system.mem_ctrls.num_reads::cpu0.data           70820                       # Number of read requests responded to by this memory
system.mem_ctrls.num_reads::cpu1.inst              94                       # Number of read requests responded to by this memory
system.mem_ctrls.num_reads::cpu1.data           40213                       # Number of read requests responded to by this memory
system.mem_ctrls.num_reads::total              112308                       # Number of read requests responded to by this memory
system.mem_ctrls.num_writes::writebacks         48574                       # Number of write requests responded to by this memory
system.mem_ctrls.num_writes::total              48574                       # Number of write requests responded to by this memory
system.mem_ctrls.bw_read::cpu0.inst            142810                       # Total read bandwidth from this memory (bytes/s)
system.mem_ctrls.bw_read::cpu0.data           8563766                       # Total read bandwidth from this memory (bytes/s)
system.mem_ctrls.bw_read::cpu1.inst             11367                       # Total read bandwidth from this memory (bytes/s)
system.mem_ctrls.bw_read::cpu1.data           4862676                       # Total read bandwidth from this memory (bytes/s)
system.mem_ctrls.bw_read::total              13580619                       # Total read bandwidth from this memory (bytes/s)
system.mem_ctrls.bw_inst_read::cpu0.inst       142810                       # Instruction read bandwidth from this memory (bytes/s)
system.mem_ctrls.bw_inst_read::cpu1.inst        11367                       # Instruction read bandwidth from this memory (bytes/s)
system.mem_ctrls.bw_inst_read::total           154177                       # Instruction read bandwidth from this memory (bytes/s)
system.mem_ctrls.bw_write::writebacks         5873713                       # Write bandwidth from this memory (bytes/s)
system.mem_ctrls.bw_write::total              5873713                       # Write bandwidth from this memory (bytes/s)
system.mem_ctrls.bw_total::writebacks         5873713                       # Total bandwidth to/from this memory (bytes/s)
system.mem_ctrls.bw_total::cpu0.inst           142810                       # Total bandwidth to/from this memory (bytes/s)
system.mem_ctrls.bw_total::cpu0.data          8563766                       # Total bandwidth to/from this memory (bytes/s)
system.mem_ctrls.bw_total::cpu1.inst            11367                       # Total bandwidth to/from this memory (bytes/s)
system.mem_ctrls.bw_total::cpu1.data          4862676                       # Total bandwidth to/from this memory (bytes/s)
system.mem_ctrls.bw_total::total             19454332                       # Total bandwidth to/from this memory (bytes/s)
system.mem_ctrls.readReqs                      112308                       # Number of read requests accepted
system.mem_ctrls.writeReqs                      48574                       # Number of write requests accepted
system.mem_ctrls.readBursts                    112308                       # Number of DRAM read bursts, including those serviced by the write queue
system.mem_ctrls.writeBursts                    48574                       # Number of DRAM write bursts, including those merged in the write queue
system.mem_ctrls.bytesReadDRAM                7164928                       # Total number of bytes read from DRAM
system.mem_ctrls.bytesReadWrQ                   22784                       # Total number of bytes read from write queue
system.mem_ctrls.bytesWritten                 3107008                       # Total number of bytes written to DRAM
system.mem_ctrls.bytesReadSys                 7187712                       # Total read bytes from the system interface side
system.mem_ctrls.bytesWrittenSys              3108736                       # Total written bytes from the system interface side
system.mem_ctrls.servicedByWrQ                    356                       # Number of DRAM read bursts serviced by the write queue
system.mem_ctrls.mergedWrBursts                     0                       # Number of DRAM write bursts merged with an existing one
system.mem_ctrls.neitherReadNorWriteReqs            0                       # Number of requests that are neither read nor write
system.mem_ctrls.perBankRdBursts::0              7272                       # Per bank write bursts
system.mem_ctrls.perBankRdBursts::1              6797                       # Per bank write bursts
system.mem_ctrls.perBankRdBursts::2              7267                       # Per bank write bursts
system.mem_ctrls.perBankRdBursts::3              6722                       # Per bank write bursts
system.mem_ctrls.perBankRdBursts::4              6732                       # Per bank write bursts
system.mem_ctrls.perBankRdBursts::5              6815                       # Per bank write bursts
system.mem_ctrls.perBankRdBursts::6              6978                       # Per bank write bursts
system.mem_ctrls.perBankRdBursts::7              6595                       # Per bank write bursts
system.mem_ctrls.perBankRdBursts::8              6772                       # Per bank write bursts
system.mem_ctrls.perBankRdBursts::9              6770                       # Per bank write bursts
system.mem_ctrls.perBankRdBursts::10             6842                       # Per bank write bursts
system.mem_ctrls.perBankRdBursts::11             6868                       # Per bank write bursts
system.mem_ctrls.perBankRdBursts::12             8100                       # Per bank write bursts
system.mem_ctrls.perBankRdBursts::13             6909                       # Per bank write bursts
system.mem_ctrls.perBankRdBursts::14             7809                       # Per bank write bursts
system.mem_ctrls.perBankRdBursts::15             6704                       # Per bank write bursts
system.mem_ctrls.perBankWrBursts::0              3176                       # Per bank write bursts
system.mem_ctrls.perBankWrBursts::1              2842                       # Per bank write bursts
system.mem_ctrls.perBankWrBursts::2              3103                       # Per bank write bursts
system.mem_ctrls.perBankWrBursts::3              2792                       # Per bank write bursts
system.mem_ctrls.perBankWrBursts::4              2810                       # Per bank write bursts
system.mem_ctrls.perBankWrBursts::5              2821                       # Per bank write bursts
system.mem_ctrls.perBankWrBursts::6              2947                       # Per bank write bursts
system.mem_ctrls.perBankWrBursts::7              2832                       # Per bank write bursts
system.mem_ctrls.perBankWrBursts::8              2881                       # Per bank write bursts
system.mem_ctrls.perBankWrBursts::9              2926                       # Per bank write bursts
system.mem_ctrls.perBankWrBursts::10             2944                       # Per bank write bursts
system.mem_ctrls.perBankWrBursts::11             2977                       # Per bank write bursts
system.mem_ctrls.perBankWrBursts::12             3886                       # Per bank write bursts
system.mem_ctrls.perBankWrBursts::13             2995                       # Per bank write bursts
system.mem_ctrls.perBankWrBursts::14             3688                       # Per bank write bursts
system.mem_ctrls.perBankWrBursts::15             2927                       # Per bank write bursts
system.mem_ctrls.numRdRetry                         0                       # Number of times read queue was full causing retry
system.mem_ctrls.numWrRetry                         0                       # Number of times write queue was full causing retry
system.mem_ctrls.totGap                  529262434000                       # Total gap between requests
system.mem_ctrls.readPktSize::0                     0                       # Read request sizes (log2)
system.mem_ctrls.readPktSize::1                     0                       # Read request sizes (log2)
system.mem_ctrls.readPktSize::2                     0                       # Read request sizes (log2)
system.mem_ctrls.readPktSize::3                     0                       # Read request sizes (log2)
system.mem_ctrls.readPktSize::4                     0                       # Read request sizes (log2)
system.mem_ctrls.readPktSize::5                     0                       # Read request sizes (log2)
system.mem_ctrls.readPktSize::6                112308                       # Read request sizes (log2)
system.mem_ctrls.writePktSize::0                    0                       # Write request sizes (log2)
system.mem_ctrls.writePktSize::1                    0                       # Write request sizes (log2)
system.mem_ctrls.writePktSize::2                    0                       # Write request sizes (log2)
system.mem_ctrls.writePktSize::3                    0                       # Write request sizes (log2)
system.mem_ctrls.writePktSize::4                    0                       # Write request sizes (log2)
system.mem_ctrls.writePktSize::5                    0                       # Write request sizes (log2)
system.mem_ctrls.writePktSize::6                48574                       # Write request sizes (log2)
system.mem_ctrls.rdQLenPdf::0                   96764                       # What read queue length does an incoming req see
system.mem_ctrls.rdQLenPdf::1                   15188                       # What read queue length does an incoming req see
system.mem_ctrls.rdQLenPdf::2                       0                       # What read queue length does an incoming req see
system.mem_ctrls.rdQLenPdf::3                       0                       # What read queue length does an incoming req see
system.mem_ctrls.rdQLenPdf::4                       0                       # What read queue length does an incoming req see
system.mem_ctrls.rdQLenPdf::5                       0                       # What read queue length does an incoming req see
system.mem_ctrls.rdQLenPdf::6                       0                       # What read queue length does an incoming req see
system.mem_ctrls.rdQLenPdf::7                       0                       # What read queue length does an incoming req see
system.mem_ctrls.rdQLenPdf::8                       0                       # What read queue length does an incoming req see
system.mem_ctrls.rdQLenPdf::9                       0                       # What read queue length does an incoming req see
system.mem_ctrls.rdQLenPdf::10                      0                       # What read queue length does an incoming req see
system.mem_ctrls.rdQLenPdf::11                      0                       # What read queue length does an incoming req see
system.mem_ctrls.rdQLenPdf::12                      0                       # What read queue length does an incoming req see
system.mem_ctrls.rdQLenPdf::13                      0                       # What read queue length does an incoming req see
system.mem_ctrls.rdQLenPdf::14                      0                       # What read queue length does an incoming req see
system.mem_ctrls.rdQLenPdf::15                      0                       # What read queue length does an incoming req see
system.mem_ctrls.rdQLenPdf::16                      0                       # What read queue length does an incoming req see
system.mem_ctrls.rdQLenPdf::17                      0                       # What read queue length does an incoming req see
system.mem_ctrls.rdQLenPdf::18                      0                       # What read queue length does an incoming req see
system.mem_ctrls.rdQLenPdf::19                      0                       # What read queue length does an incoming req see
system.mem_ctrls.rdQLenPdf::20                      0                       # What read queue length does an incoming req see
system.mem_ctrls.rdQLenPdf::21                      0                       # What read queue length does an incoming req see
system.mem_ctrls.rdQLenPdf::22                      0                       # What read queue length does an incoming req see
system.mem_ctrls.rdQLenPdf::23                      0                       # What read queue length does an incoming req see
system.mem_ctrls.rdQLenPdf::24                      0                       # What read queue length does an incoming req see
system.mem_ctrls.rdQLenPdf::25                      0                       # What read queue length does an incoming req see
system.mem_ctrls.rdQLenPdf::26                      0                       # What read queue length does an incoming req see
system.mem_ctrls.rdQLenPdf::27                      0                       # What read queue length does an incoming req see
system.mem_ctrls.rdQLenPdf::28                      0                       # What read queue length does an incoming req see
system.mem_ctrls.rdQLenPdf::29                      0                       # What read queue length does an incoming req see
system.mem_ctrls.rdQLenPdf::30                      0                       # What read queue length does an incoming req see
system.mem_ctrls.rdQLenPdf::31                      0                       # What read queue length does an incoming req see
system.mem_ctrls.wrQLenPdf::0                       1                       # What write queue length does an incoming req see
system.mem_ctrls.wrQLenPdf::1                       1                       # What write queue length does an incoming req see
system.mem_ctrls.wrQLenPdf::2                       1                       # What write queue length does an incoming req see
system.mem_ctrls.wrQLenPdf::3                       1                       # What write queue length does an incoming req see
system.mem_ctrls.wrQLenPdf::4                       1                       # What write queue length does an incoming req see
system.mem_ctrls.wrQLenPdf::5                       1                       # What write queue length does an incoming req see
system.mem_ctrls.wrQLenPdf::6                       1                       # What write queue length does an incoming req see
system.mem_ctrls.wrQLenPdf::7                       1                       # What write queue length does an incoming req see
system.mem_ctrls.wrQLenPdf::8                       1                       # What write queue length does an incoming req see
system.mem_ctrls.wrQLenPdf::9                       1                       # What write queue length does an incoming req see
system.mem_ctrls.wrQLenPdf::10                      1                       # What write queue length does an incoming req see
system.mem_ctrls.wrQLenPdf::11                      1                       # What write queue length does an incoming req see
system.mem_ctrls.wrQLenPdf::12                      1                       # What write queue length does an incoming req see
system.mem_ctrls.wrQLenPdf::13                      1                       # What write queue length does an incoming req see
system.mem_ctrls.wrQLenPdf::14                      1                       # What write queue length does an incoming req see
system.mem_ctrls.wrQLenPdf::15                    904                       # What write queue length does an incoming req see
system.mem_ctrls.wrQLenPdf::16                    982                       # What write queue length does an incoming req see
system.mem_ctrls.wrQLenPdf::17                   2157                       # What write queue length does an incoming req see
system.mem_ctrls.wrQLenPdf::18                   2957                       # What write queue length does an incoming req see
system.mem_ctrls.wrQLenPdf::19                   2965                       # What write queue length does an incoming req see
system.mem_ctrls.wrQLenPdf::20                   2985                       # What write queue length does an incoming req see
system.mem_ctrls.wrQLenPdf::21                   2969                       # What write queue length does an incoming req see
system.mem_ctrls.wrQLenPdf::22                   2969                       # What write queue length does an incoming req see
system.mem_ctrls.wrQLenPdf::23                   2972                       # What write queue length does an incoming req see
system.mem_ctrls.wrQLenPdf::24                   2941                       # What write queue length does an incoming req see
system.mem_ctrls.wrQLenPdf::25                   2952                       # What write queue length does an incoming req see
system.mem_ctrls.wrQLenPdf::26                   2956                       # What write queue length does an incoming req see
system.mem_ctrls.wrQLenPdf::27                   2962                       # What write queue length does an incoming req see
system.mem_ctrls.wrQLenPdf::28                   2965                       # What write queue length does an incoming req see
system.mem_ctrls.wrQLenPdf::29                   2949                       # What write queue length does an incoming req see
system.mem_ctrls.wrQLenPdf::30                   3049                       # What write queue length does an incoming req see
system.mem_ctrls.wrQLenPdf::31                   2951                       # What write queue length does an incoming req see
system.mem_ctrls.wrQLenPdf::32                   2968                       # What write queue length does an incoming req see
system.mem_ctrls.wrQLenPdf::33                      6                       # What write queue length does an incoming req see
system.mem_ctrls.wrQLenPdf::34                      0                       # What write queue length does an incoming req see
system.mem_ctrls.wrQLenPdf::35                      0                       # What write queue length does an incoming req see
system.mem_ctrls.wrQLenPdf::36                      0                       # What write queue length does an incoming req see
system.mem_ctrls.wrQLenPdf::37                      0                       # What write queue length does an incoming req see
system.mem_ctrls.wrQLenPdf::38                      0                       # What write queue length does an incoming req see
system.mem_ctrls.wrQLenPdf::39                      0                       # What write queue length does an incoming req see
system.mem_ctrls.wrQLenPdf::40                      0                       # What write queue length does an incoming req see
system.mem_ctrls.wrQLenPdf::41                      0                       # What write queue length does an incoming req see
system.mem_ctrls.wrQLenPdf::42                      0                       # What write queue length does an incoming req see
system.mem_ctrls.wrQLenPdf::43                      0                       # What write queue length does an incoming req see
system.mem_ctrls.wrQLenPdf::44                      0                       # What write queue length does an incoming req see
system.mem_ctrls.wrQLenPdf::45                      0                       # What write queue length does an incoming req see
system.mem_ctrls.wrQLenPdf::46                      0                       # What write queue length does an incoming req see
system.mem_ctrls.wrQLenPdf::47                      0                       # What write queue length does an incoming req see
system.mem_ctrls.wrQLenPdf::48                      0                       # What write queue length does an incoming req see
system.mem_ctrls.wrQLenPdf::49                      0                       # What write queue length does an incoming req see
system.mem_ctrls.wrQLenPdf::50                      0                       # What write queue length does an incoming req see
system.mem_ctrls.wrQLenPdf::51                      0                       # What write queue length does an incoming req see
system.mem_ctrls.wrQLenPdf::52                      0                       # What write queue length does an incoming req see
system.mem_ctrls.wrQLenPdf::53                      0                       # What write queue length does an incoming req see
system.mem_ctrls.wrQLenPdf::54                      0                       # What write queue length does an incoming req see
system.mem_ctrls.wrQLenPdf::55                      0                       # What write queue length does an incoming req see
system.mem_ctrls.wrQLenPdf::56                      0                       # What write queue length does an incoming req see
system.mem_ctrls.wrQLenPdf::57                      0                       # What write queue length does an incoming req see
system.mem_ctrls.wrQLenPdf::58                      0                       # What write queue length does an incoming req see
system.mem_ctrls.wrQLenPdf::59                      0                       # What write queue length does an incoming req see
system.mem_ctrls.wrQLenPdf::60                      0                       # What write queue length does an incoming req see
system.mem_ctrls.wrQLenPdf::61                      0                       # What write queue length does an incoming req see
system.mem_ctrls.wrQLenPdf::62                      0                       # What write queue length does an incoming req see
system.mem_ctrls.wrQLenPdf::63                      0                       # What write queue length does an incoming req see
system.mem_ctrls.bytesPerActivate::samples        88051                       # Bytes accessed per row activation
system.mem_ctrls.bytesPerActivate::mean    116.646580                       # Bytes accessed per row activation
system.mem_ctrls.bytesPerActivate::gmean    88.042635                       # Bytes accessed per row activation
system.mem_ctrls.bytesPerActivate::stdev   128.021632                       # Bytes accessed per row activation
system.mem_ctrls.bytesPerActivate::0-127        67159     76.27%     76.27% # Bytes accessed per row activation
system.mem_ctrls.bytesPerActivate::128-255         8719      9.90%     86.18% # Bytes accessed per row activation
system.mem_ctrls.bytesPerActivate::256-383         7899      8.97%     95.15% # Bytes accessed per row activation
system.mem_ctrls.bytesPerActivate::384-511         2155      2.45%     97.59% # Bytes accessed per row activation
system.mem_ctrls.bytesPerActivate::512-639          933      1.06%     98.65% # Bytes accessed per row activation
system.mem_ctrls.bytesPerActivate::640-767          444      0.50%     99.16% # Bytes accessed per row activation
system.mem_ctrls.bytesPerActivate::768-895          233      0.26%     99.42% # Bytes accessed per row activation
system.mem_ctrls.bytesPerActivate::896-1023          166      0.19%     99.61% # Bytes accessed per row activation
system.mem_ctrls.bytesPerActivate::1024-1151          343      0.39%    100.00% # Bytes accessed per row activation
system.mem_ctrls.bytesPerActivate::total        88051                       # Bytes accessed per row activation
system.mem_ctrls.rdPerTurnAround::samples         2907                       # Reads before turning the bus around for writes
system.mem_ctrls.rdPerTurnAround::mean      38.507740                       # Reads before turning the bus around for writes
system.mem_ctrls.rdPerTurnAround::gmean     22.517773                       # Reads before turning the bus around for writes
system.mem_ctrls.rdPerTurnAround::stdev    567.224306                       # Reads before turning the bus around for writes
system.mem_ctrls.rdPerTurnAround::0-1023         2906     99.97%     99.97% # Reads before turning the bus around for writes
system.mem_ctrls.rdPerTurnAround::29696-30719            1      0.03%    100.00% # Reads before turning the bus around for writes
system.mem_ctrls.rdPerTurnAround::total          2907                       # Reads before turning the bus around for writes
system.mem_ctrls.wrPerTurnAround::samples         2907                       # Writes before turning the bus around for reads
system.mem_ctrls.wrPerTurnAround::mean      16.700034                       # Writes before turning the bus around for reads
system.mem_ctrls.wrPerTurnAround::gmean     16.671738                       # Writes before turning the bus around for reads
system.mem_ctrls.wrPerTurnAround::stdev      0.987609                       # Writes before turning the bus around for reads
system.mem_ctrls.wrPerTurnAround::16             1895     65.19%     65.19% # Writes before turning the bus around for reads
system.mem_ctrls.wrPerTurnAround::17               66      2.27%     67.46% # Writes before turning the bus around for reads
system.mem_ctrls.wrPerTurnAround::18              881     30.31%     97.76% # Writes before turning the bus around for reads
system.mem_ctrls.wrPerTurnAround::19               53      1.82%     99.59% # Writes before turning the bus around for reads
system.mem_ctrls.wrPerTurnAround::20               12      0.41%    100.00% # Writes before turning the bus around for reads
system.mem_ctrls.wrPerTurnAround::total          2907                       # Writes before turning the bus around for reads
system.mem_ctrls.totQLat                   9836836250                       # Total ticks spent queuing
system.mem_ctrls.totMemAccLat             11935936250                       # Total ticks spent from burst creation until serviced by the DRAM
system.mem_ctrls.totBusLat                  559760000                       # Total ticks spent in databus transfers
system.mem_ctrls.avgQLat                     87866.55                       # Average queueing delay per DRAM burst
system.mem_ctrls.avgBusLat                    5000.00                       # Average bus latency per DRAM burst
system.mem_ctrls.avgMemAccLat               106616.55                       # Average memory access latency per DRAM burst
system.mem_ctrls.avgRdBW                        13.54                       # Average DRAM read bandwidth in MiByte/s
system.mem_ctrls.avgWrBW                         5.87                       # Average achieved write bandwidth in MiByte/s
system.mem_ctrls.avgRdBWSys                     13.58                       # Average system read bandwidth in MiByte/s
system.mem_ctrls.avgWrBWSys                      5.87                       # Average system write bandwidth in MiByte/s
system.mem_ctrls.peakBW                      12800.00                       # Theoretical peak bandwidth in MiByte/s
system.mem_ctrls.busUtil                         0.15                       # Data bus utilization in percentage
system.mem_ctrls.busUtilRead                     0.11                       # Data bus utilization in percentage for reads
system.mem_ctrls.busUtilWrite                    0.05                       # Data bus utilization in percentage for writes
system.mem_ctrls.avgRdQLen                       1.00                       # Average read queue length when enqueuing
system.mem_ctrls.avgWrQLen                      13.82                       # Average write queue length when enqueuing
system.mem_ctrls.readRowHits                    46353                       # Number of row buffer hits during reads
system.mem_ctrls.writeRowHits                   26087                       # Number of row buffer hits during writes
system.mem_ctrls.readRowHitRate                 41.40                       # Row buffer hit rate for reads
system.mem_ctrls.writeRowHitRate                53.71                       # Row buffer hit rate for writes
system.mem_ctrls.avgGap                    3289755.44                       # Average gap between requests
system.mem_ctrls.pageHitRate                    45.13                       # Row buffer hit rate, read and write combined
system.mem_ctrls_0.actEnergy                306663000                       # Energy for activate commands per rank (pJ)
system.mem_ctrls_0.preEnergy                162991455                       # Energy for precharge commands per rank (pJ)
system.mem_ctrls_0.readEnergy               393970920                       # Energy for read commands per rank (pJ)
system.mem_ctrls_0.writeEnergy              121746060                       # Energy for write commands per rank (pJ)
system.mem_ctrls_0.refreshEnergy         16445922480.000004                       # Energy for refresh commands per rank (pJ)
system.mem_ctrls_0.actBackEnergy           4572483000                       # Energy for active background per rank (pJ)
system.mem_ctrls_0.preBackEnergy            961029120                       # Energy for precharge background per rank (pJ)
system.mem_ctrls_0.actPowerDownEnergy     36574130370                       # Energy for active power-down per rank (pJ)
system.mem_ctrls_0.prePowerDownEnergy     24965721120                       # Energy for precharge power-down per rank (pJ)
system.mem_ctrls_0.selfRefreshEnergy      93017723100                       # Energy for self refresh per rank (pJ)
system.mem_ctrls_0.totalEnergy           177532472865                       # Total energy per rank (pJ)
system.mem_ctrls_0.averagePower            335.433704                       # Core power per rank (mW)
system.mem_ctrls_0.totalIdleTime         516709580500                       # Total Idle time Per DRAM Rank
system.mem_ctrls_0.memoryStateTime::IDLE   1926962250                       # Time in different power states
system.mem_ctrls_0.memoryStateTime::REF    6999492000                       # Time in different power states
system.mem_ctrls_0.memoryStateTime::SREF 371488661500                       # Time in different power states
system.mem_ctrls_0.memoryStateTime::PRE_PDN  65014798500                       # Time in different power states
system.mem_ctrls_0.memoryStateTime::ACT    3626380750                       # Time in different power states
system.mem_ctrls_0.memoryStateTime::ACT_PDN  80206178000                       # Time in different power states
system.mem_ctrls_1.actEnergy                322078260                       # Energy for activate commands per rank (pJ)
system.mem_ctrls_1.preEnergy                171162090                       # Energy for precharge commands per rank (pJ)
system.mem_ctrls_1.readEnergy               405366360                       # Energy for read commands per rank (pJ)
system.mem_ctrls_1.writeEnergy              131669280                       # Energy for write commands per rank (pJ)
system.mem_ctrls_1.refreshEnergy         16734803280.000004                       # Energy for refresh commands per rank (pJ)
system.mem_ctrls_1.actBackEnergy           4528473870                       # Energy for active background per rank (pJ)
system.mem_ctrls_1.preBackEnergy            991920480                       # Energy for precharge background per rank (pJ)
system.mem_ctrls_1.actPowerDownEnergy     37096230420                       # Energy for active power-down per rank (pJ)
system.mem_ctrls_1.prePowerDownEnergy     25233997920                       # Energy for precharge power-down per rank (pJ)
system.mem_ctrls_1.selfRefreshEnergy      92719063305                       # Energy for self refresh per rank (pJ)
system.mem_ctrls_1.totalEnergy           178343490645                       # Total energy per rank (pJ)
system.mem_ctrls_1.averagePower            336.966060                       # Core power per rank (mW)
system.mem_ctrls_1.totalIdleTime         516728326750                       # Total Idle time Per DRAM Rank
system.mem_ctrls_1.memoryStateTime::IDLE   1998535750                       # Time in different power states
system.mem_ctrls_1.memoryStateTime::REF    7123108000                       # Time in different power states
system.mem_ctrls_1.memoryStateTime::SREF 369664174000                       # Time in different power states
system.mem_ctrls_1.memoryStateTime::PRE_PDN  65713550000                       # Time in different power states
system.mem_ctrls_1.memoryStateTime::ACT    3412259250                       # Time in different power states
system.mem_ctrls_1.memoryStateTime::ACT_PDN  81350846000                       # Time in different power states
system.pwrStateResidencyTicks::UNDEFINED 529262473000                       # Cumulative time (in ticks) in various power states
system.cpu_voltage_domain.voltage                   1                       # Voltage in Volts
system.cpu_clk_domain.clock                       500                       # Clock period in ticks
system.cpu0.dstage2_mmu.stage2_tlb.walker.pwrStateResidencyTicks::UNDEFINED 529262473000                       # Cumulative time (in ticks) in various power states
system.cpu0.dstage2_mmu.stage2_tlb.walker.walks            0                       # Table walker walks requested
system.cpu0.dstage2_mmu.stage2_tlb.walker.walkRequestOrigin_Requested::Data            0                       # Table walker requests started/completed, data/inst
system.cpu0.dstage2_mmu.stage2_tlb.walker.walkRequestOrigin_Requested::Inst            0                       # Table walker requests started/completed, data/inst
system.cpu0.dstage2_mmu.stage2_tlb.walker.walkRequestOrigin_Requested::total            0                       # Table walker requests started/completed, data/inst
system.cpu0.dstage2_mmu.stage2_tlb.walker.walkRequestOrigin_Completed::Data            0                       # Table walker requests started/completed, data/inst
system.cpu0.dstage2_mmu.stage2_tlb.walker.walkRequestOrigin_Completed::Inst            0                       # Table walker requests started/completed, data/inst
system.cpu0.dstage2_mmu.stage2_tlb.walker.walkRequestOrigin_Completed::total            0                       # Table walker requests started/completed, data/inst
system.cpu0.dstage2_mmu.stage2_tlb.walker.walkRequestOrigin::total            0                       # Table walker requests started/completed, data/inst
system.cpu0.dstage2_mmu.stage2_tlb.inst_hits            0                       # ITB inst hits
system.cpu0.dstage2_mmu.stage2_tlb.inst_misses            0                       # ITB inst misses
system.cpu0.dstage2_mmu.stage2_tlb.read_hits            0                       # DTB read hits
system.cpu0.dstage2_mmu.stage2_tlb.read_misses            0                       # DTB read misses
system.cpu0.dstage2_mmu.stage2_tlb.write_hits            0                       # DTB write hits
system.cpu0.dstage2_mmu.stage2_tlb.write_misses            0                       # DTB write misses
system.cpu0.dstage2_mmu.stage2_tlb.flush_tlb            0                       # Number of times complete TLB was flushed
system.cpu0.dstage2_mmu.stage2_tlb.flush_tlb_mva            0                       # Number of times TLB was flushed by MVA
system.cpu0.dstage2_mmu.stage2_tlb.flush_tlb_mva_asid            0                       # Number of times TLB was flushed by MVA & ASID
system.cpu0.dstage2_mmu.stage2_tlb.flush_tlb_asid            0                       # Number of times TLB was flushed by ASID
system.cpu0.dstage2_mmu.stage2_tlb.flush_entries            0                       # Number of entries that have been flushed from TLB
system.cpu0.dstage2_mmu.stage2_tlb.align_faults            0                       # Number of TLB faults due to alignment restrictions
system.cpu0.dstage2_mmu.stage2_tlb.prefetch_faults            0                       # Number of TLB faults due to prefetch
system.cpu0.dstage2_mmu.stage2_tlb.domain_faults            0                       # Number of TLB faults due to domain restrictions
system.cpu0.dstage2_mmu.stage2_tlb.perms_faults            0                       # Number of TLB faults due to permissions restrictions
system.cpu0.dstage2_mmu.stage2_tlb.read_accesses            0                       # DTB read accesses
system.cpu0.dstage2_mmu.stage2_tlb.write_accesses            0                       # DTB write accesses
system.cpu0.dstage2_mmu.stage2_tlb.inst_accesses            0                       # ITB inst accesses
system.cpu0.dstage2_mmu.stage2_tlb.hits             0                       # DTB hits
system.cpu0.dstage2_mmu.stage2_tlb.misses            0                       # DTB misses
system.cpu0.dstage2_mmu.stage2_tlb.accesses            0                       # DTB accesses
system.cpu0.dtb.walker.pwrStateResidencyTicks::UNDEFINED 529262473000                       # Cumulative time (in ticks) in various power states
system.cpu0.dtb.walker.walks                        0                       # Table walker walks requested
system.cpu0.dtb.walker.walkRequestOrigin_Requested::Data            0                       # Table walker requests started/completed, data/inst
system.cpu0.dtb.walker.walkRequestOrigin_Requested::Inst            0                       # Table walker requests started/completed, data/inst
system.cpu0.dtb.walker.walkRequestOrigin_Requested::total            0                       # Table walker requests started/completed, data/inst
system.cpu0.dtb.walker.walkRequestOrigin_Completed::Data            0                       # Table walker requests started/completed, data/inst
system.cpu0.dtb.walker.walkRequestOrigin_Completed::Inst            0                       # Table walker requests started/completed, data/inst
system.cpu0.dtb.walker.walkRequestOrigin_Completed::total            0                       # Table walker requests started/completed, data/inst
system.cpu0.dtb.walker.walkRequestOrigin::total            0                       # Table walker requests started/completed, data/inst
system.cpu0.dtb.inst_hits                           0                       # ITB inst hits
system.cpu0.dtb.inst_misses                         0                       # ITB inst misses
system.cpu0.dtb.read_hits                           0                       # DTB read hits
system.cpu0.dtb.read_misses                         0                       # DTB read misses
system.cpu0.dtb.write_hits                          0                       # DTB write hits
system.cpu0.dtb.write_misses                        0                       # DTB write misses
system.cpu0.dtb.flush_tlb                           0                       # Number of times complete TLB was flushed
system.cpu0.dtb.flush_tlb_mva                       0                       # Number of times TLB was flushed by MVA
system.cpu0.dtb.flush_tlb_mva_asid                  0                       # Number of times TLB was flushed by MVA & ASID
system.cpu0.dtb.flush_tlb_asid                      0                       # Number of times TLB was flushed by ASID
system.cpu0.dtb.flush_entries                       0                       # Number of entries that have been flushed from TLB
system.cpu0.dtb.align_faults                        0                       # Number of TLB faults due to alignment restrictions
system.cpu0.dtb.prefetch_faults                     0                       # Number of TLB faults due to prefetch
system.cpu0.dtb.domain_faults                       0                       # Number of TLB faults due to domain restrictions
system.cpu0.dtb.perms_faults                        0                       # Number of TLB faults due to permissions restrictions
system.cpu0.dtb.read_accesses                       0                       # DTB read accesses
system.cpu0.dtb.write_accesses                      0                       # DTB write accesses
system.cpu0.dtb.inst_accesses                       0                       # ITB inst accesses
system.cpu0.dtb.hits                                0                       # DTB hits
system.cpu0.dtb.misses                              0                       # DTB misses
system.cpu0.dtb.accesses                            0                       # DTB accesses
system.cpu0.istage2_mmu.stage2_tlb.walker.pwrStateResidencyTicks::UNDEFINED 529262473000                       # Cumulative time (in ticks) in various power states
system.cpu0.istage2_mmu.stage2_tlb.walker.walks            0                       # Table walker walks requested
system.cpu0.istage2_mmu.stage2_tlb.walker.walkRequestOrigin_Requested::Data            0                       # Table walker requests started/completed, data/inst
system.cpu0.istage2_mmu.stage2_tlb.walker.walkRequestOrigin_Requested::Inst            0                       # Table walker requests started/completed, data/inst
system.cpu0.istage2_mmu.stage2_tlb.walker.walkRequestOrigin_Requested::total            0                       # Table walker requests started/completed, data/inst
system.cpu0.istage2_mmu.stage2_tlb.walker.walkRequestOrigin_Completed::Data            0                       # Table walker requests started/completed, data/inst
system.cpu0.istage2_mmu.stage2_tlb.walker.walkRequestOrigin_Completed::Inst            0                       # Table walker requests started/completed, data/inst
system.cpu0.istage2_mmu.stage2_tlb.walker.walkRequestOrigin_Completed::total            0                       # Table walker requests started/completed, data/inst
system.cpu0.istage2_mmu.stage2_tlb.walker.walkRequestOrigin::total            0                       # Table walker requests started/completed, data/inst
system.cpu0.istage2_mmu.stage2_tlb.inst_hits            0                       # ITB inst hits
system.cpu0.istage2_mmu.stage2_tlb.inst_misses            0                       # ITB inst misses
system.cpu0.istage2_mmu.stage2_tlb.read_hits            0                       # DTB read hits
system.cpu0.istage2_mmu.stage2_tlb.read_misses            0                       # DTB read misses
system.cpu0.istage2_mmu.stage2_tlb.write_hits            0                       # DTB write hits
system.cpu0.istage2_mmu.stage2_tlb.write_misses            0                       # DTB write misses
system.cpu0.istage2_mmu.stage2_tlb.flush_tlb            0                       # Number of times complete TLB was flushed
system.cpu0.istage2_mmu.stage2_tlb.flush_tlb_mva            0                       # Number of times TLB was flushed by MVA
system.cpu0.istage2_mmu.stage2_tlb.flush_tlb_mva_asid            0                       # Number of times TLB was flushed by MVA & ASID
system.cpu0.istage2_mmu.stage2_tlb.flush_tlb_asid            0                       # Number of times TLB was flushed by ASID
system.cpu0.istage2_mmu.stage2_tlb.flush_entries            0                       # Number of entries that have been flushed from TLB
system.cpu0.istage2_mmu.stage2_tlb.align_faults            0                       # Number of TLB faults due to alignment restrictions
system.cpu0.istage2_mmu.stage2_tlb.prefetch_faults            0                       # Number of TLB faults due to prefetch
system.cpu0.istage2_mmu.stage2_tlb.domain_faults            0                       # Number of TLB faults due to domain restrictions
system.cpu0.istage2_mmu.stage2_tlb.perms_faults            0                       # Number of TLB faults due to permissions restrictions
system.cpu0.istage2_mmu.stage2_tlb.read_accesses            0                       # DTB read accesses
system.cpu0.istage2_mmu.stage2_tlb.write_accesses            0                       # DTB write accesses
system.cpu0.istage2_mmu.stage2_tlb.inst_accesses            0                       # ITB inst accesses
system.cpu0.istage2_mmu.stage2_tlb.hits             0                       # DTB hits
system.cpu0.istage2_mmu.stage2_tlb.misses            0                       # DTB misses
system.cpu0.istage2_mmu.stage2_tlb.accesses            0                       # DTB accesses
system.cpu0.itb.walker.pwrStateResidencyTicks::UNDEFINED 529262473000                       # Cumulative time (in ticks) in various power states
system.cpu0.itb.walker.walks                        0                       # Table walker walks requested
system.cpu0.itb.walker.walkRequestOrigin_Requested::Data            0                       # Table walker requests started/completed, data/inst
system.cpu0.itb.walker.walkRequestOrigin_Requested::Inst            0                       # Table walker requests started/completed, data/inst
system.cpu0.itb.walker.walkRequestOrigin_Requested::total            0                       # Table walker requests started/completed, data/inst
system.cpu0.itb.walker.walkRequestOrigin_Completed::Data            0                       # Table walker requests started/completed, data/inst
system.cpu0.itb.walker.walkRequestOrigin_Completed::Inst            0                       # Table walker requests started/completed, data/inst
system.cpu0.itb.walker.walkRequestOrigin_Completed::total            0                       # Table walker requests started/completed, data/inst
system.cpu0.itb.walker.walkRequestOrigin::total            0                       # Table walker requests started/completed, data/inst
system.cpu0.itb.inst_hits                           0                       # ITB inst hits
system.cpu0.itb.inst_misses                         0                       # ITB inst misses
system.cpu0.itb.read_hits                           0                       # DTB read hits
system.cpu0.itb.read_misses                         0                       # DTB read misses
system.cpu0.itb.write_hits                          0                       # DTB write hits
system.cpu0.itb.write_misses                        0                       # DTB write misses
system.cpu0.itb.flush_tlb                           0                       # Number of times complete TLB was flushed
system.cpu0.itb.flush_tlb_mva                       0                       # Number of times TLB was flushed by MVA
system.cpu0.itb.flush_tlb_mva_asid                  0                       # Number of times TLB was flushed by MVA & ASID
system.cpu0.itb.flush_tlb_asid                      0                       # Number of times TLB was flushed by ASID
system.cpu0.itb.flush_entries                       0                       # Number of entries that have been flushed from TLB
system.cpu0.itb.align_faults                        0                       # Number of TLB faults due to alignment restrictions
system.cpu0.itb.prefetch_faults                     0                       # Number of TLB faults due to prefetch
system.cpu0.itb.domain_faults                       0                       # Number of TLB faults due to domain restrictions
system.cpu0.itb.perms_faults                        0                       # Number of TLB faults due to permissions restrictions
system.cpu0.itb.read_accesses                       0                       # DTB read accesses
system.cpu0.itb.write_accesses                      0                       # DTB write accesses
system.cpu0.itb.inst_accesses                       0                       # ITB inst accesses
system.cpu0.itb.hits                                0                       # DTB hits
system.cpu0.itb.misses                              0                       # DTB misses
system.cpu0.itb.accesses                            0                       # DTB accesses
system.cpu0.workload.numSyscalls                   46                       # Number of system calls
system.cpu0.pwrStateResidencyTicks::ON   529262473000                       # Cumulative time (in ticks) in various power states
system.cpu0.numCycles                      1058524946                       # number of cpu cycles simulated
system.cpu0.numWorkItemsStarted                     0                       # number of work items this cpu started
system.cpu0.numWorkItemsCompleted                   0                       # number of work items this cpu completed
system.cpu0.committedInsts                  444770254                       # Number of instructions committed
system.cpu0.committedOps                    505600564                       # Number of ops (including micro ops) committed
system.cpu0.num_int_alu_accesses            460683458                       # Number of integer alu accesses
system.cpu0.num_fp_alu_accesses                    16                       # Number of float alu accesses
system.cpu0.num_vec_alu_accesses                    0                       # Number of vector alu accesses
system.cpu0.num_func_calls                   25002143                       # number of times a function call or return occured
system.cpu0.num_conditional_control_insts     58046437                       # number of instructions that are conditional controls
system.cpu0.num_int_insts                   460683458                       # number of integer instructions
system.cpu0.num_fp_insts                           16                       # number of float instructions
system.cpu0.num_vec_insts                           0                       # number of vector instructions
system.cpu0.num_int_register_reads          700381273                       # number of times the integer registers were read
system.cpu0.num_int_register_writes         352920696                       # number of times the integer registers were written
system.cpu0.num_fp_register_reads                  16                       # number of times the floating registers were read
system.cpu0.num_fp_register_writes                  0                       # number of times the floating registers were written
system.cpu0.num_vec_register_reads                  0                       # number of times the vector registers were read
system.cpu0.num_vec_register_writes                 0                       # number of times the vector registers were written
system.cpu0.num_cc_register_reads          1631350018                       # number of times the CC registers were read
system.cpu0.num_cc_register_writes          319466311                       # number of times the CC registers were written
system.cpu0.num_mem_refs                     74476373                       # number of memory refs
system.cpu0.num_load_insts                   38120430                       # Number of load instructions
system.cpu0.num_store_insts                  36355943                       # Number of store instructions
system.cpu0.num_idle_cycles                         0                       # Number of idle cycles
system.cpu0.num_busy_cycles                1058524946                       # Number of busy cycles
system.cpu0.not_idle_fraction                       1                       # Percentage of non-idle cycles
system.cpu0.idle_fraction                           0                       # Percentage of idle cycles
system.cpu0.Branches                         77937064                       # Number of branches fetched
system.cpu0.op_class::No_OpClass                    0      0.00%      0.00% # Class of executed instruction
system.cpu0.op_class::IntAlu                427933760     83.37%     83.37% # Class of executed instruction
system.cpu0.op_class::IntMult                10834226      2.11%     85.48% # Class of executed instruction
system.cpu0.op_class::IntDiv                        0      0.00%     85.48% # Class of executed instruction
system.cpu0.op_class::FloatAdd                      0      0.00%     85.48% # Class of executed instruction
system.cpu0.op_class::FloatCmp                      0      0.00%     85.48% # Class of executed instruction
system.cpu0.op_class::FloatCvt                      0      0.00%     85.48% # Class of executed instruction
system.cpu0.op_class::FloatMult                     0      0.00%     85.48% # Class of executed instruction
system.cpu0.op_class::FloatMultAcc                  0      0.00%     85.48% # Class of executed instruction
system.cpu0.op_class::FloatDiv                      0      0.00%     85.48% # Class of executed instruction
system.cpu0.op_class::FloatMisc                     0      0.00%     85.48% # Class of executed instruction
system.cpu0.op_class::FloatSqrt                     0      0.00%     85.48% # Class of executed instruction
system.cpu0.op_class::SimdAdd                       0      0.00%     85.48% # Class of executed instruction
system.cpu0.op_class::SimdAddAcc                    0      0.00%     85.48% # Class of executed instruction
system.cpu0.op_class::SimdAlu                       0      0.00%     85.48% # Class of executed instruction
system.cpu0.op_class::SimdCmp                       0      0.00%     85.48% # Class of executed instruction
system.cpu0.op_class::SimdCvt                       0      0.00%     85.48% # Class of executed instruction
system.cpu0.op_class::SimdMisc                      0      0.00%     85.48% # Class of executed instruction
system.cpu0.op_class::SimdMult                      0      0.00%     85.48% # Class of executed instruction
system.cpu0.op_class::SimdMultAcc                   0      0.00%     85.48% # Class of executed instruction
system.cpu0.op_class::SimdShift                     0      0.00%     85.48% # Class of executed instruction
system.cpu0.op_class::SimdShiftAcc                  0      0.00%     85.48% # Class of executed instruction
system.cpu0.op_class::SimdSqrt                      0      0.00%     85.48% # Class of executed instruction
system.cpu0.op_class::SimdFloatAdd                  0      0.00%     85.48% # Class of executed instruction
system.cpu0.op_class::SimdFloatAlu                  0      0.00%     85.48% # Class of executed instruction
system.cpu0.op_class::SimdFloatCmp                  0      0.00%     85.48% # Class of executed instruction
system.cpu0.op_class::SimdFloatCvt                  0      0.00%     85.48% # Class of executed instruction
system.cpu0.op_class::SimdFloatDiv                  0      0.00%     85.48% # Class of executed instruction
system.cpu0.op_class::SimdFloatMisc             65794      0.01%     85.49% # Class of executed instruction
system.cpu0.op_class::SimdFloatMult                 0      0.00%     85.49% # Class of executed instruction
system.cpu0.op_class::SimdFloatMultAcc              0      0.00%     85.49% # Class of executed instruction
system.cpu0.op_class::SimdFloatSqrt                 0      0.00%     85.49% # Class of executed instruction
system.cpu0.op_class::MemRead                38120430      7.43%     92.92% # Class of executed instruction
system.cpu0.op_class::MemWrite               36355927      7.08%    100.00% # Class of executed instruction
system.cpu0.op_class::FloatMemRead                  0      0.00%    100.00% # Class of executed instruction
system.cpu0.op_class::FloatMemWrite                16      0.00%    100.00% # Class of executed instruction
system.cpu0.op_class::IprAccess                     0      0.00%    100.00% # Class of executed instruction
system.cpu0.op_class::InstPrefetch                  0      0.00%    100.00% # Class of executed instruction
system.cpu0.op_class::total                 513310153                       # Class of executed instruction
system.cpu0.dcache.tags.pwrStateResidencyTicks::UNDEFINED 529262473000                       # Cumulative time (in ticks) in various power states
system.cpu0.dcache.tags.replacements           107789                       # number of replacements
system.cpu0.dcache.tags.tagsinuse         1022.760387                       # Cycle average of tags in use
system.cpu0.dcache.tags.total_refs           67116850                       # Total number of references to valid blocks.
system.cpu0.dcache.tags.sampled_refs           108813                       # Sample count of references to valid blocks.
system.cpu0.dcache.tags.avg_refs           616.809113                       # Average number of references to valid blocks.
system.cpu0.dcache.tags.warmup_cycle       1608689000                       # Cycle when the warmup percentage was hit.
system.cpu0.dcache.tags.occ_blocks::cpu0.data  1022.760387                       # Average occupied blocks per requestor
system.cpu0.dcache.tags.occ_percent::cpu0.data     0.998789                       # Average percentage of cache occupancy
system.cpu0.dcache.tags.occ_percent::total     0.998789                       # Average percentage of cache occupancy
system.cpu0.dcache.tags.occ_task_id_blocks::1024         1024                       # Occupied blocks per task id
system.cpu0.dcache.tags.age_task_id_blocks_1024::0           18                       # Occupied blocks per task id
system.cpu0.dcache.tags.age_task_id_blocks_1024::1          152                       # Occupied blocks per task id
system.cpu0.dcache.tags.age_task_id_blocks_1024::2          854                       # Occupied blocks per task id
system.cpu0.dcache.tags.occ_task_id_percent::1024            1                       # Percentage of cache occupancy per task id
system.cpu0.dcache.tags.tag_accesses        134560242                       # Number of tag accesses
system.cpu0.dcache.tags.data_accesses       134560242                       # Number of data accesses
system.cpu0.dcache.pwrStateResidencyTicks::UNDEFINED 529262473000                       # Cumulative time (in ticks) in various power states
system.cpu0.dcache.ReadReq_hits::cpu0.data     30859068                       # number of ReadReq hits
system.cpu0.dcache.ReadReq_hits::total       30859068                       # number of ReadReq hits
system.cpu0.dcache.WriteReq_hits::cpu0.data     36246250                       # number of WriteReq hits
system.cpu0.dcache.WriteReq_hits::total      36246250                       # number of WriteReq hits
system.cpu0.dcache.LoadLockedReq_hits::cpu0.data          345                       # number of LoadLockedReq hits
system.cpu0.dcache.LoadLockedReq_hits::total          345                       # number of LoadLockedReq hits
system.cpu0.dcache.StoreCondReq_hits::cpu0.data          140                       # number of StoreCondReq hits
system.cpu0.dcache.StoreCondReq_hits::total          140                       # number of StoreCondReq hits
system.cpu0.dcache.demand_hits::cpu0.data     67105318                       # number of demand (read+write) hits
system.cpu0.dcache.demand_hits::total        67105318                       # number of demand (read+write) hits
system.cpu0.dcache.overall_hits::cpu0.data     67105318                       # number of overall hits
system.cpu0.dcache.overall_hits::total       67105318                       # number of overall hits
system.cpu0.dcache.ReadReq_misses::cpu0.data        50537                       # number of ReadReq misses
system.cpu0.dcache.ReadReq_misses::total        50537                       # number of ReadReq misses
system.cpu0.dcache.WriteReq_misses::cpu0.data        69325                       # number of WriteReq misses
system.cpu0.dcache.WriteReq_misses::total        69325                       # number of WriteReq misses
system.cpu0.dcache.LoadLockedReq_misses::cpu0.data           16                       # number of LoadLockedReq misses
system.cpu0.dcache.LoadLockedReq_misses::total           16                       # number of LoadLockedReq misses
system.cpu0.dcache.StoreCondReq_misses::cpu0.data           16                       # number of StoreCondReq misses
system.cpu0.dcache.StoreCondReq_misses::total           16                       # number of StoreCondReq misses
system.cpu0.dcache.demand_misses::cpu0.data       119862                       # number of demand (read+write) misses
system.cpu0.dcache.demand_misses::total        119862                       # number of demand (read+write) misses
system.cpu0.dcache.overall_misses::cpu0.data       119862                       # number of overall misses
system.cpu0.dcache.overall_misses::total       119862                       # number of overall misses
system.cpu0.dcache.ReadReq_miss_latency::cpu0.data   3354805500                       # number of ReadReq miss cycles
system.cpu0.dcache.ReadReq_miss_latency::total   3354805500                       # number of ReadReq miss cycles
system.cpu0.dcache.WriteReq_miss_latency::cpu0.data  13267360000                       # number of WriteReq miss cycles
system.cpu0.dcache.WriteReq_miss_latency::total  13267360000                       # number of WriteReq miss cycles
system.cpu0.dcache.LoadLockedReq_miss_latency::cpu0.data      1512000                       # number of LoadLockedReq miss cycles
system.cpu0.dcache.LoadLockedReq_miss_latency::total      1512000                       # number of LoadLockedReq miss cycles
system.cpu0.dcache.StoreCondReq_miss_latency::cpu0.data        80000                       # number of StoreCondReq miss cycles
system.cpu0.dcache.StoreCondReq_miss_latency::total        80000                       # number of StoreCondReq miss cycles
system.cpu0.dcache.StoreCondFailReq_miss_latency::cpu0.data         6500                       # number of StoreCondFailReq miss cycles
system.cpu0.dcache.StoreCondFailReq_miss_latency::total         6500                       # number of StoreCondFailReq miss cycles
system.cpu0.dcache.demand_miss_latency::cpu0.data  16622165500                       # number of demand (read+write) miss cycles
system.cpu0.dcache.demand_miss_latency::total  16622165500                       # number of demand (read+write) miss cycles
system.cpu0.dcache.overall_miss_latency::cpu0.data  16622165500                       # number of overall miss cycles
system.cpu0.dcache.overall_miss_latency::total  16622165500                       # number of overall miss cycles
system.cpu0.dcache.ReadReq_accesses::cpu0.data     30909605                       # number of ReadReq accesses(hits+misses)
system.cpu0.dcache.ReadReq_accesses::total     30909605                       # number of ReadReq accesses(hits+misses)
system.cpu0.dcache.WriteReq_accesses::cpu0.data     36315575                       # number of WriteReq accesses(hits+misses)
system.cpu0.dcache.WriteReq_accesses::total     36315575                       # number of WriteReq accesses(hits+misses)
system.cpu0.dcache.LoadLockedReq_accesses::cpu0.data          361                       # number of LoadLockedReq accesses(hits+misses)
system.cpu0.dcache.LoadLockedReq_accesses::total          361                       # number of LoadLockedReq accesses(hits+misses)
system.cpu0.dcache.StoreCondReq_accesses::cpu0.data          156                       # number of StoreCondReq accesses(hits+misses)
system.cpu0.dcache.StoreCondReq_accesses::total          156                       # number of StoreCondReq accesses(hits+misses)
system.cpu0.dcache.demand_accesses::cpu0.data     67225180                       # number of demand (read+write) accesses
system.cpu0.dcache.demand_accesses::total     67225180                       # number of demand (read+write) accesses
system.cpu0.dcache.overall_accesses::cpu0.data     67225180                       # number of overall (read+write) accesses
system.cpu0.dcache.overall_accesses::total     67225180                       # number of overall (read+write) accesses
system.cpu0.dcache.ReadReq_miss_rate::cpu0.data     0.001635                       # miss rate for ReadReq accesses
system.cpu0.dcache.ReadReq_miss_rate::total     0.001635                       # miss rate for ReadReq accesses
system.cpu0.dcache.WriteReq_miss_rate::cpu0.data     0.001909                       # miss rate for WriteReq accesses
system.cpu0.dcache.WriteReq_miss_rate::total     0.001909                       # miss rate for WriteReq accesses
system.cpu0.dcache.LoadLockedReq_miss_rate::cpu0.data     0.044321                       # miss rate for LoadLockedReq accesses
system.cpu0.dcache.LoadLockedReq_miss_rate::total     0.044321                       # miss rate for LoadLockedReq accesses
system.cpu0.dcache.StoreCondReq_miss_rate::cpu0.data     0.102564                       # miss rate for StoreCondReq accesses
system.cpu0.dcache.StoreCondReq_miss_rate::total     0.102564                       # miss rate for StoreCondReq accesses
system.cpu0.dcache.demand_miss_rate::cpu0.data     0.001783                       # miss rate for demand accesses
system.cpu0.dcache.demand_miss_rate::total     0.001783                       # miss rate for demand accesses
system.cpu0.dcache.overall_miss_rate::cpu0.data     0.001783                       # miss rate for overall accesses
system.cpu0.dcache.overall_miss_rate::total     0.001783                       # miss rate for overall accesses
system.cpu0.dcache.ReadReq_avg_miss_latency::cpu0.data 66383.154916                       # average ReadReq miss latency
system.cpu0.dcache.ReadReq_avg_miss_latency::total 66383.154916                       # average ReadReq miss latency
system.cpu0.dcache.WriteReq_avg_miss_latency::cpu0.data 191379.156149                       # average WriteReq miss latency
system.cpu0.dcache.WriteReq_avg_miss_latency::total 191379.156149                       # average WriteReq miss latency
system.cpu0.dcache.LoadLockedReq_avg_miss_latency::cpu0.data        94500                       # average LoadLockedReq miss latency
system.cpu0.dcache.LoadLockedReq_avg_miss_latency::total        94500                       # average LoadLockedReq miss latency
system.cpu0.dcache.StoreCondReq_avg_miss_latency::cpu0.data         5000                       # average StoreCondReq miss latency
system.cpu0.dcache.StoreCondReq_avg_miss_latency::total         5000                       # average StoreCondReq miss latency
system.cpu0.dcache.StoreCondFailReq_avg_miss_latency::cpu0.data          inf                       # average StoreCondFailReq miss latency
system.cpu0.dcache.StoreCondFailReq_avg_miss_latency::total          inf                       # average StoreCondFailReq miss latency
system.cpu0.dcache.demand_avg_miss_latency::cpu0.data 138677.524987                       # average overall miss latency
system.cpu0.dcache.demand_avg_miss_latency::total 138677.524987                       # average overall miss latency
system.cpu0.dcache.overall_avg_miss_latency::cpu0.data 138677.524987                       # average overall miss latency
system.cpu0.dcache.overall_avg_miss_latency::total 138677.524987                       # average overall miss latency
system.cpu0.dcache.blocked_cycles::no_mshrs            0                       # number of cycles access was blocked
system.cpu0.dcache.blocked_cycles::no_targets            0                       # number of cycles access was blocked
system.cpu0.dcache.blocked::no_mshrs                0                       # number of cycles access was blocked
system.cpu0.dcache.blocked::no_targets              0                       # number of cycles access was blocked
system.cpu0.dcache.avg_blocked_cycles::no_mshrs          nan                       # average number of cycles each access was blocked
system.cpu0.dcache.avg_blocked_cycles::no_targets          nan                       # average number of cycles each access was blocked
system.cpu0.dcache.writebacks::writebacks        74092                       # number of writebacks
system.cpu0.dcache.writebacks::total            74092                       # number of writebacks
system.cpu0.dcache.ReadReq_mshr_misses::cpu0.data        50537                       # number of ReadReq MSHR misses
system.cpu0.dcache.ReadReq_mshr_misses::total        50537                       # number of ReadReq MSHR misses
system.cpu0.dcache.WriteReq_mshr_misses::cpu0.data        69325                       # number of WriteReq MSHR misses
system.cpu0.dcache.WriteReq_mshr_misses::total        69325                       # number of WriteReq MSHR misses
system.cpu0.dcache.LoadLockedReq_mshr_misses::cpu0.data           16                       # number of LoadLockedReq MSHR misses
system.cpu0.dcache.LoadLockedReq_mshr_misses::total           16                       # number of LoadLockedReq MSHR misses
system.cpu0.dcache.StoreCondReq_mshr_misses::cpu0.data           16                       # number of StoreCondReq MSHR misses
system.cpu0.dcache.StoreCondReq_mshr_misses::total           16                       # number of StoreCondReq MSHR misses
system.cpu0.dcache.demand_mshr_misses::cpu0.data       119862                       # number of demand (read+write) MSHR misses
system.cpu0.dcache.demand_mshr_misses::total       119862                       # number of demand (read+write) MSHR misses
system.cpu0.dcache.overall_mshr_misses::cpu0.data       119862                       # number of overall MSHR misses
system.cpu0.dcache.overall_mshr_misses::total       119862                       # number of overall MSHR misses
system.cpu0.dcache.ReadReq_mshr_miss_latency::cpu0.data   3304268500                       # number of ReadReq MSHR miss cycles
system.cpu0.dcache.ReadReq_mshr_miss_latency::total   3304268500                       # number of ReadReq MSHR miss cycles
system.cpu0.dcache.WriteReq_mshr_miss_latency::cpu0.data  13198035000                       # number of WriteReq MSHR miss cycles
system.cpu0.dcache.WriteReq_mshr_miss_latency::total  13198035000                       # number of WriteReq MSHR miss cycles
system.cpu0.dcache.LoadLockedReq_mshr_miss_latency::cpu0.data      1496000                       # number of LoadLockedReq MSHR miss cycles
system.cpu0.dcache.LoadLockedReq_mshr_miss_latency::total      1496000                       # number of LoadLockedReq MSHR miss cycles
system.cpu0.dcache.StoreCondReq_mshr_miss_latency::cpu0.data        65000                       # number of StoreCondReq MSHR miss cycles
system.cpu0.dcache.StoreCondReq_mshr_miss_latency::total        65000                       # number of StoreCondReq MSHR miss cycles
system.cpu0.dcache.StoreCondFailReq_mshr_miss_latency::cpu0.data         5500                       # number of StoreCondFailReq MSHR miss cycles
system.cpu0.dcache.StoreCondFailReq_mshr_miss_latency::total         5500                       # number of StoreCondFailReq MSHR miss cycles
system.cpu0.dcache.demand_mshr_miss_latency::cpu0.data  16502303500                       # number of demand (read+write) MSHR miss cycles
system.cpu0.dcache.demand_mshr_miss_latency::total  16502303500                       # number of demand (read+write) MSHR miss cycles
system.cpu0.dcache.overall_mshr_miss_latency::cpu0.data  16502303500                       # number of overall MSHR miss cycles
system.cpu0.dcache.overall_mshr_miss_latency::total  16502303500                       # number of overall MSHR miss cycles
system.cpu0.dcache.ReadReq_mshr_miss_rate::cpu0.data     0.001635                       # mshr miss rate for ReadReq accesses
system.cpu0.dcache.ReadReq_mshr_miss_rate::total     0.001635                       # mshr miss rate for ReadReq accesses
system.cpu0.dcache.WriteReq_mshr_miss_rate::cpu0.data     0.001909                       # mshr miss rate for WriteReq accesses
system.cpu0.dcache.WriteReq_mshr_miss_rate::total     0.001909                       # mshr miss rate for WriteReq accesses
system.cpu0.dcache.LoadLockedReq_mshr_miss_rate::cpu0.data     0.044321                       # mshr miss rate for LoadLockedReq accesses
system.cpu0.dcache.LoadLockedReq_mshr_miss_rate::total     0.044321                       # mshr miss rate for LoadLockedReq accesses
system.cpu0.dcache.StoreCondReq_mshr_miss_rate::cpu0.data     0.102564                       # mshr miss rate for StoreCondReq accesses
system.cpu0.dcache.StoreCondReq_mshr_miss_rate::total     0.102564                       # mshr miss rate for StoreCondReq accesses
system.cpu0.dcache.demand_mshr_miss_rate::cpu0.data     0.001783                       # mshr miss rate for demand accesses
system.cpu0.dcache.demand_mshr_miss_rate::total     0.001783                       # mshr miss rate for demand accesses
system.cpu0.dcache.overall_mshr_miss_rate::cpu0.data     0.001783                       # mshr miss rate for overall accesses
system.cpu0.dcache.overall_mshr_miss_rate::total     0.001783                       # mshr miss rate for overall accesses
system.cpu0.dcache.ReadReq_avg_mshr_miss_latency::cpu0.data 65383.154916                       # average ReadReq mshr miss latency
system.cpu0.dcache.ReadReq_avg_mshr_miss_latency::total 65383.154916                       # average ReadReq mshr miss latency
system.cpu0.dcache.WriteReq_avg_mshr_miss_latency::cpu0.data 190379.156149                       # average WriteReq mshr miss latency
system.cpu0.dcache.WriteReq_avg_mshr_miss_latency::total 190379.156149                       # average WriteReq mshr miss latency
system.cpu0.dcache.LoadLockedReq_avg_mshr_miss_latency::cpu0.data        93500                       # average LoadLockedReq mshr miss latency
system.cpu0.dcache.LoadLockedReq_avg_mshr_miss_latency::total        93500                       # average LoadLockedReq mshr miss latency
system.cpu0.dcache.StoreCondReq_avg_mshr_miss_latency::cpu0.data  4062.500000                       # average StoreCondReq mshr miss latency
system.cpu0.dcache.StoreCondReq_avg_mshr_miss_latency::total  4062.500000                       # average StoreCondReq mshr miss latency
system.cpu0.dcache.StoreCondFailReq_avg_mshr_miss_latency::cpu0.data          inf                       # average StoreCondFailReq mshr miss latency
system.cpu0.dcache.StoreCondFailReq_avg_mshr_miss_latency::total          inf                       # average StoreCondFailReq mshr miss latency
system.cpu0.dcache.demand_avg_mshr_miss_latency::cpu0.data 137677.524987                       # average overall mshr miss latency
system.cpu0.dcache.demand_avg_mshr_miss_latency::total 137677.524987                       # average overall mshr miss latency
system.cpu0.dcache.overall_avg_mshr_miss_latency::cpu0.data 137677.524987                       # average overall mshr miss latency
system.cpu0.dcache.overall_avg_mshr_miss_latency::total 137677.524987                       # average overall mshr miss latency
system.cpu0.icache.tags.pwrStateResidencyTicks::UNDEFINED 529262473000                       # Cumulative time (in ticks) in various power states
system.cpu0.icache.tags.replacements            66851                       # number of replacements
system.cpu0.icache.tags.tagsinuse          496.261042                       # Cycle average of tags in use
system.cpu0.icache.tags.total_refs          444759086                       # Total number of references to valid blocks.
system.cpu0.icache.tags.sampled_refs            67362                       # Sample count of references to valid blocks.
system.cpu0.icache.tags.avg_refs          6602.521986                       # Average number of references to valid blocks.
system.cpu0.icache.tags.warmup_cycle                0                       # Cycle when the warmup percentage was hit.
system.cpu0.icache.tags.occ_blocks::cpu0.inst   496.261042                       # Average occupied blocks per requestor
system.cpu0.icache.tags.occ_percent::cpu0.inst     0.969260                       # Average percentage of cache occupancy
system.cpu0.icache.tags.occ_percent::total     0.969260                       # Average percentage of cache occupancy
system.cpu0.icache.tags.occ_task_id_blocks::1024          511                       # Occupied blocks per task id
system.cpu0.icache.tags.age_task_id_blocks_1024::0           60                       # Occupied blocks per task id
system.cpu0.icache.tags.age_task_id_blocks_1024::1          186                       # Occupied blocks per task id
system.cpu0.icache.tags.age_task_id_blocks_1024::3            4                       # Occupied blocks per task id
system.cpu0.icache.tags.age_task_id_blocks_1024::4          261                       # Occupied blocks per task id
system.cpu0.icache.tags.occ_task_id_percent::1024     0.998047                       # Percentage of cache occupancy per task id
system.cpu0.icache.tags.tag_accesses        889720258                       # Number of tag accesses
system.cpu0.icache.tags.data_accesses       889720258                       # Number of data accesses
system.cpu0.icache.pwrStateResidencyTicks::UNDEFINED 529262473000                       # Cumulative time (in ticks) in various power states
system.cpu0.icache.ReadReq_hits::cpu0.inst    444759086                       # number of ReadReq hits
system.cpu0.icache.ReadReq_hits::total      444759086                       # number of ReadReq hits
system.cpu0.icache.demand_hits::cpu0.inst    444759086                       # number of demand (read+write) hits
system.cpu0.icache.demand_hits::total       444759086                       # number of demand (read+write) hits
system.cpu0.icache.overall_hits::cpu0.inst    444759086                       # number of overall hits
system.cpu0.icache.overall_hits::total      444759086                       # number of overall hits
system.cpu0.icache.ReadReq_misses::cpu0.inst        67362                       # number of ReadReq misses
system.cpu0.icache.ReadReq_misses::total        67362                       # number of ReadReq misses
system.cpu0.icache.demand_misses::cpu0.inst        67362                       # number of demand (read+write) misses
system.cpu0.icache.demand_misses::total         67362                       # number of demand (read+write) misses
[...]
system.l3.ReadSharedReq_avg_mshr_miss_latency::total 82654.303209                       # average ReadSharedReq mshr miss latency
system.l3.demand_avg_mshr_miss_latency::cpu0.inst 82679.508891                       # average overall mshr miss latency
system.l3.demand_avg_mshr_miss_latency::cpu0.data 181365.899463                       # average overall mshr miss latency
system.l3.demand_avg_mshr_miss_latency::cpu1.inst 99989.361702                       # average overall mshr miss latency
system.l3.demand_avg_mshr_miss_latency::cpu1.data 89098.848631                       # average overall mshr miss latency
system.l3.demand_avg_mshr_miss_latency::total 147222.891513                       # average overall mshr miss latency
system.l3.overall_avg_mshr_miss_latency::cpu0.inst 82679.508891                       # average overall mshr miss latency
system.l3.overall_avg_mshr_miss_latency::cpu0.data 181365.899463                       # average overall mshr miss latency
system.l3.overall_avg_mshr_miss_latency::cpu1.inst 99989.361702                       # average overall mshr miss latency
system.l3.overall_avg_mshr_miss_latency::cpu1.data 89098.848631                       # average overall mshr miss latency
system.l3.overall_avg_mshr_miss_latency::total 147222.891513                       # average overall mshr miss latency
system.membus.snoop_filter.tot_requests        191347                       # Total number of requests made to the snoop filter.
system.membus.snoop_filter.hit_single_requests        79075                       # Number of requests hitting in the snoop filter with a single holder of the requested data.
system.membus.snoop_filter.hit_multi_requests            0                       # Number of requests hitting in the snoop filter with multiple (>1) holders of the requested data.
system.membus.snoop_filter.tot_snoops               0                       # Total number of snoops made to the snoop filter.
system.membus.snoop_filter.hit_single_snoops            0                       # Number of snoops hitting in the snoop filter with a single holder of the requested data.
system.membus.snoop_filter.hit_multi_snoops            0                       # Number of snoops hitting in the snoop filter with multiple (>1) holders of the requested data.
system.membus.pwrStateResidencyTicks::UNDEFINED 529262473000                       # Cumulative time (in ticks) in various power states
system.membus.trans_dist::ReadResp              44095                       # Transaction distribution
system.membus.trans_dist::WritebackDirty        48574                       # Transaction distribution
system.membus.trans_dist::CleanEvict            30430                       # Transaction distribution
system.membus.trans_dist::UpgradeReq               12                       # Transaction distribution
system.membus.trans_dist::SCUpgradeReq             23                       # Transaction distribution
system.membus.trans_dist::ReadExReq             68213                       # Transaction distribution
system.membus.trans_dist::ReadExResp            68213                       # Transaction distribution
system.membus.trans_dist::ReadSharedReq         44095                       # Transaction distribution
system.membus.pkt_count_system.l3.mem_side::system.mem_ctrls.port       303655                       # Packet count per connected master and slave (bytes)
system.membus.pkt_count::total                 303655                       # Packet count per connected master and slave (bytes)
system.membus.pkt_size_system.l3.mem_side::system.mem_ctrls.port     10296448                       # Cumulative packet size per connected master and slave (bytes)
system.membus.pkt_size::total                10296448                       # Cumulative packet size per connected master and slave (bytes)
system.membus.snoops                               35                       # Total snoops (count)
system.membus.snoopTraffic                          0                       # Total snoop traffic (bytes)
system.membus.snoop_fanout::samples            112343                       # Request fanout histogram
system.membus.snoop_fanout::mean                    0                       # Request fanout histogram
system.membus.snoop_fanout::stdev                   0                       # Request fanout histogram
system.membus.snoop_fanout::underflows              0      0.00%      0.00% # Request fanout histogram
system.membus.snoop_fanout::0                  112343    100.00%    100.00% # Request fanout histogram
system.membus.snoop_fanout::1                       0      0.00%    100.00% # Request fanout histogram
system.membus.snoop_fanout::overflows               0      0.00%    100.00% # Request fanout histogram
system.membus.snoop_fanout::min_value               0                       # Request fanout histogram
system.membus.snoop_fanout::max_value               0                       # Request fanout histogram
system.membus.snoop_fanout::total              112343                       # Request fanout histogram
system.membus.reqLayer0.occupancy           387050500                       # Layer occupancy (ticks)
system.membus.reqLayer0.utilization               0.1                       # Layer utilization (%)
system.membus.respLayer1.occupancy          610791500                       # Layer occupancy (ticks)
system.membus.respLayer1.utilization              0.1                       # Layer utilization (%)
system.tol2bus0.snoop_filter.tot_requests       522374                       # Total number of requests made to the snoop filter.
system.tol2bus0.snoop_filter.hit_single_requests       271311                       # Number of requests hitting in the snoop filter with a single holder of the requested data.
system.tol2bus0.snoop_filter.hit_multi_requests          353                       # Number of requests hitting in the snoop filter with multiple (>1) holders of the requested data.
system.tol2bus0.snoop_filter.tot_snoops          2386                       # Total number of snoops made to the snoop filter.
system.tol2bus0.snoop_filter.hit_single_snoops         2171                       # Number of snoops hitting in the snoop filter with a single holder of the requested data.
system.tol2bus0.snoop_filter.hit_multi_snoops          215                       # Number of snoops hitting in the snoop filter with multiple (>1) holders of the requested data.
system.tol2bus0.pwrStateResidencyTicks::UNDEFINED 529262473000                       # Cumulative time (in ticks) in various power states
system.tol2bus0.trans_dist::ReadResp           167985                       # Transaction distribution
system.tol2bus0.trans_dist::WritebackDirty       253064                       # Transaction distribution
system.tol2bus0.trans_dist::WritebackClean        66851                       # Transaction distribution
system.tol2bus0.trans_dist::CleanEvict         104019                       # Transaction distribution
system.tol2bus0.trans_dist::UpgradeReq          22820                       # Transaction distribution
system.tol2bus0.trans_dist::SCUpgradeReq           27                       # Transaction distribution
system.tol2bus0.trans_dist::UpgradeResp         22847                       # Transaction distribution
system.tol2bus0.trans_dist::SCUpgradeFailReq            1                       # Transaction distribution
system.tol2bus0.trans_dist::UpgradeFailResp            1                       # Transaction distribution
system.tol2bus0.trans_dist::ReadExReq           83165                       # Transaction distribution
system.tol2bus0.trans_dist::ReadExResp          83165                       # Transaction distribution
system.tol2bus0.trans_dist::ReadCleanReq        67524                       # Transaction distribution
system.tol2bus0.trans_dist::ReadSharedReq       100461                       # Transaction distribution
system.tol2bus0.pkt_count_system.cpu0.icache.mem_side::system.l20.cpu_side       201575                       # Packet count per connected master and slave (bytes)
system.tol2bus0.pkt_count_system.cpu0.dcache.mem_side::system.l20.cpu_side       347531                       # Packet count per connected master and slave (bytes)
system.tol2bus0.pkt_count_system.cpu1.icache.mem_side::system.l20.cpu_side          324                       # Packet count per connected master and slave (bytes)
system.tol2bus0.pkt_count_system.cpu1.dcache.mem_side::system.l20.cpu_side       246848                       # Packet count per connected master and slave (bytes)
system.tol2bus0.pkt_count::total               796278                       # Packet count per connected master and slave (bytes)
system.tol2bus0.pkt_size_system.cpu0.icache.mem_side::system.l20.cpu_side      8589632                       # Cumulative packet size per connected master and slave (bytes)
system.tol2bus0.pkt_size_system.cpu0.dcache.mem_side::system.l20.cpu_side     11706304                       # Cumulative packet size per connected master and slave (bytes)
system.tol2bus0.pkt_size_system.cpu1.icache.mem_side::system.l20.cpu_side        10368                       # Cumulative packet size per connected master and slave (bytes)
system.tol2bus0.pkt_size_system.cpu1.dcache.mem_side::system.l20.cpu_side      7383744                       # Cumulative packet size per connected master and slave (bytes)
system.tol2bus0.pkt_size::total              27690048                       # Cumulative packet size per connected master and slave (bytes)
system.tol2bus0.snoops                         175652                       # Total snoops (count)
system.tol2bus0.snoopTraffic                  8858176                       # Total snoop traffic (bytes)
system.tol2bus0.snoop_fanout::samples          449556                       # Request fanout histogram
system.tol2bus0.snoop_fanout::mean           0.006873                       # Request fanout histogram
system.tol2bus0.snoop_fanout::stdev          0.088245                       # Request fanout histogram
system.tol2bus0.snoop_fanout::underflows            0      0.00%      0.00% # Request fanout histogram
system.tol2bus0.snoop_fanout::0                446682     99.36%     99.36% # Request fanout histogram
system.tol2bus0.snoop_fanout::1                  2658      0.59%     99.95% # Request fanout histogram
system.tol2bus0.snoop_fanout::2                   216      0.05%    100.00% # Request fanout histogram
system.tol2bus0.snoop_fanout::3                     0      0.00%    100.00% # Request fanout histogram
system.tol2bus0.snoop_fanout::4                     0      0.00%    100.00% # Request fanout histogram
system.tol2bus0.snoop_fanout::5                     0      0.00%    100.00% # Request fanout histogram
system.tol2bus0.snoop_fanout::6                     0      0.00%    100.00% # Request fanout histogram
system.tol2bus0.snoop_fanout::7                     0      0.00%    100.00% # Request fanout histogram
system.tol2bus0.snoop_fanout::8                     0      0.00%    100.00% # Request fanout histogram
system.tol2bus0.snoop_fanout::overflows             0      0.00%    100.00% # Request fanout histogram
system.tol2bus0.snoop_fanout::min_value             0                       # Request fanout histogram
system.tol2bus0.snoop_fanout::max_value             2                       # Request fanout histogram
system.tol2bus0.snoop_fanout::total            449556                       # Request fanout histogram
system.tol2bus0.reqLayer0.occupancy         442752499                       # Layer occupancy (ticks)
system.tol2bus0.reqLayer0.utilization             0.1                       # Layer utilization (%)
system.tol2bus0.respLayer0.occupancy        101043998                       # Layer occupancy (ticks)
system.tol2bus0.respLayer0.utilization            0.0                       # Layer utilization (%)
system.tol2bus0.respLayer1.occupancy        168796997                       # Layer occupancy (ticks)
system.tol2bus0.respLayer1.utilization            0.0                       # Layer utilization (%)
system.tol2bus0.respLayer4.occupancy           244497                       # Layer occupancy (ticks)
system.tol2bus0.respLayer4.utilization            0.0                       # Layer utilization (%)
system.tol2bus0.respLayer5.occupancy        118070996                       # Layer occupancy (ticks)
system.tol2bus0.respLayer5.utilization            0.0                       # Layer utilization (%)
system.tol2bus1.snoop_filter.tot_requests            0                       # Total number of requests made to the snoop filter.
system.tol2bus1.snoop_filter.hit_single_requests            0                       # Number of requests hitting in the snoop filter with a single holder of the requested data.
system.tol2bus1.snoop_filter.hit_multi_requests            0                       # Number of requests hitting in the snoop filter with multiple (>1) holders of the requested data.
system.tol2bus1.snoop_filter.tot_snoops             0                       # Total number of snoops made to the snoop filter.
system.tol2bus1.snoop_filter.hit_single_snoops            0                       # Number of snoops hitting in the snoop filter with a single holder of the requested data.
system.tol2bus1.snoop_filter.hit_multi_snoops            0                       # Number of snoops hitting in the snoop filter with multiple (>1) holders of the requested data.
system.tol2bus1.pwrStateResidencyTicks::UNDEFINED 529262473000                       # Cumulative time (in ticks) in various power states
system.tol2bus1.snoops                              0                       # Total snoops (count)
system.tol2bus1.snoopTraffic                        0                       # Total snoop traffic (bytes)
system.tol2bus1.snoop_fanout::samples               0                       # Request fanout histogram
system.tol2bus1.snoop_fanout::mean                nan                       # Request fanout histogram
system.tol2bus1.snoop_fanout::stdev               nan                       # Request fanout histogram
system.tol2bus1.snoop_fanout::underflows            0                       # Request fanout histogram
system.tol2bus1.snoop_fanout::0                     0                       # Request fanout histogram
system.tol2bus1.snoop_fanout::1                     0                       # Request fanout histogram
system.tol2bus1.snoop_fanout::2                     0                       # Request fanout histogram
system.tol2bus1.snoop_fanout::3                     0                       # Request fanout histogram
system.tol2bus1.snoop_fanout::4                     0                       # Request fanout histogram
system.tol2bus1.snoop_fanout::5                     0                       # Request fanout histogram
system.tol2bus1.snoop_fanout::6                     0                       # Request fanout histogram
system.tol2bus1.snoop_fanout::7                     0                       # Request fanout histogram
system.tol2bus1.snoop_fanout::8                     0                       # Request fanout histogram
system.tol2bus1.snoop_fanout::overflows             0                       # Request fanout histogram
system.tol2bus1.snoop_fanout::min_value             0                       # Request fanout histogram
system.tol2bus1.snoop_fanout::max_value             0                       # Request fanout histogram
system.tol2bus1.snoop_fanout::total                 0                       # Request fanout histogram
system.tol3bus.snoop_filter.tot_requests       355625                       # Total number of requests made to the snoop filter.
system.tol3bus.snoop_filter.hit_single_requests       173601                       # Number of requests hitting in the snoop filter with a single holder of the requested data.
system.tol3bus.snoop_filter.hit_multi_requests            0                       # Number of requests hitting in the snoop filter with multiple (>1) holders of the requested data.
system.tol3bus.snoop_filter.tot_snoops            801                       # Total number of snoops made to the snoop filter.
system.tol3bus.snoop_filter.hit_single_snoops          801                       # Number of snoops hitting in the snoop filter with a single holder of the requested data.
system.tol3bus.snoop_filter.hit_multi_snoops            0                       # Number of snoops hitting in the snoop filter with multiple (>1) holders of the requested data.
system.tol3bus.pwrStateResidencyTicks::UNDEFINED 529262473000                       # Cumulative time (in ticks) in various power states
system.tol3bus.trans_dist::ReadResp             98995                       # Transaction distribution
system.tol3bus.trans_dist::WritebackDirty       186882                       # Transaction distribution
system.tol3bus.trans_dist::CleanEvict           66195                       # Transaction distribution
system.tol3bus.trans_dist::UpgradeReq              12                       # Transaction distribution
system.tol3bus.trans_dist::SCUpgradeReq            23                       # Transaction distribution
system.tol3bus.trans_dist::ReadExReq            83068                       # Transaction distribution
system.tol3bus.trans_dist::ReadExResp           83068                       # Transaction distribution
system.tol3bus.trans_dist::ReadSharedReq        98995                       # Transaction distribution
system.tol3bus.pkt_count_system.l20.mem_side::system.l3.cpu_side       537688                       # Packet count per connected master and slave (bytes)
system.tol3bus.pkt_count::total                537688                       # Packet count per connected master and slave (bytes)
system.tol3bus.pkt_size_system.l20.mem_side::system.l3.cpu_side     20503744                       # Cumulative packet size per connected master and slave (bytes)
system.tol3bus.pkt_size::total               20503744                       # Cumulative packet size per connected master and slave (bytes)
system.tol3bus.snoops                           79585                       # Total snoops (count)
system.tol3bus.snoopTraffic                   3108736                       # Total snoop traffic (bytes)
system.tol3bus.snoop_fanout::samples           261648                       # Request fanout histogram
system.tol3bus.snoop_fanout::mean            0.003061                       # Request fanout histogram
system.tol3bus.snoop_fanout::stdev           0.055245                       # Request fanout histogram
system.tol3bus.snoop_fanout::underflows             0      0.00%      0.00% # Request fanout histogram
system.tol3bus.snoop_fanout::0                 260847     99.69%     99.69% # Request fanout histogram
system.tol3bus.snoop_fanout::1                    801      0.31%    100.00% # Request fanout histogram
system.tol3bus.snoop_fanout::2                      0      0.00%    100.00% # Request fanout histogram
system.tol3bus.snoop_fanout::overflows              0      0.00%    100.00% # Request fanout histogram
system.tol3bus.snoop_fanout::min_value              0                       # Request fanout histogram
system.tol3bus.snoop_fanout::max_value              1                       # Request fanout histogram
system.tol3bus.snoop_fanout::total             261648                       # Request fanout histogram
system.tol3bus.reqLayer0.occupancy          316103000                       # Layer occupancy (ticks)
system.tol3bus.reqLayer0.utilization              0.1                       # Layer utilization (%)
system.tol3bus.respLayer0.occupancy         273094500                       # Layer occupancy (ticks)
system.tol3bus.respLayer0.utilization             0.1                       # Layer utilization (%)

---------- End Simulation Statistics   ----------
