
---------- Begin Simulation Statistics ----------
sim_seconds                                  0.331624                       # Number of seconds simulated
sim_ticks                                331624199000                       # Number of ticks simulated
final_tick                               5560020363000                       # Number of ticks from beginning of simulation (restored from checkpoints and never reset)
sim_freq                                 1000000000000                       # Frequency of simulated ticks
host_inst_rate                                 827298                       # Simulator instruction rate (inst/s)
host_op_rate                                  1540745                       # Simulator op (including micro ops) rate (op/s)
host_tick_rate                              914506724                       # Simulator tick rate (ticks/s)
host_mem_usage                                5006660                       # Number of bytes of host memory used
host_seconds                                   362.63                       # Real time elapsed on the host
sim_insts                                   300000001                       # Number of instructions simulated
sim_ops                                     558714590                       # Number of ops (including micro ops) simulated
system.voltage_domain.voltage                       1                       # Voltage in Volts
system.clk_domain.clock                          1000                       # Clock period in ticks
system.mem_ctrls0.pwrStateResidencyTicks::UNDEFINED 5560020363000                       # Cumulative time (in ticks) in various power states
system.mem_ctrls0.bytes_read::ruby.dir_cntrl0      1975360                       # Number of bytes read from this memory
system.mem_ctrls0.bytes_read::total           1975360                       # Number of bytes read from this memory
system.mem_ctrls0.bytes_written::ruby.dir_cntrl0      2130688                       # Number of bytes written to this memory
system.mem_ctrls0.bytes_written::total        2130688                       # Number of bytes written to this memory
system.mem_ctrls0.num_reads::ruby.dir_cntrl0        30865                       # Number of read requests responded to by this memory
system.mem_ctrls0.num_reads::total              30865                       # Number of read requests responded to by this memory
system.mem_ctrls0.num_writes::ruby.dir_cntrl0        33292                       # Number of write requests responded to by this memory
system.mem_ctrls0.num_writes::total             33292                       # Number of write requests responded to by this memory
system.mem_ctrls0.bw_read::ruby.dir_cntrl0      5956622                       # Total read bandwidth from this memory (bytes/s)
system.mem_ctrls0.bw_read::total              5956622                       # Total read bandwidth from this memory (bytes/s)
system.mem_ctrls0.bw_write::ruby.dir_cntrl0      6425008                       # Write bandwidth from this memory (bytes/s)
system.mem_ctrls0.bw_write::total             6425008                       # Write bandwidth from this memory (bytes/s)
system.mem_ctrls0.bw_total::ruby.dir_cntrl0     12381630                       # Total bandwidth to/from this memory (bytes/s)
system.mem_ctrls0.bw_total::total            12381630                       # Total bandwidth to/from this memory (bytes/s)
system.mem_ctrls0.readReqs                      30865                       # Number of read requests accepted
system.mem_ctrls0.writeReqs                     33292                       # Number of write requests accepted
system.mem_ctrls0.readBursts                    30865                       # Number of DRAM read bursts, including those serviced by the write queue
system.mem_ctrls0.writeBursts                   33292                       # Number of DRAM write bursts, including those merged in the write queue
system.mem_ctrls0.bytesReadDRAM               1955328                       # Total number of bytes read from DRAM
system.mem_ctrls0.bytesReadWrQ                  20032                       # Total number of bytes read from write queue
system.mem_ctrls0.bytesWritten                2125568                       # Total number of bytes written to DRAM
system.mem_ctrls0.bytesReadSys                1975360                       # Total read bytes from the system interface side
system.mem_ctrls0.bytesWrittenSys             2130688                       # Total written bytes from the system interface side
system.mem_ctrls0.servicedByWrQ                   313                       # Number of DRAM read bursts serviced by the write queue
system.mem_ctrls0.mergedWrBursts                   89                       # Number of DRAM write bursts merged with an existing one
system.mem_ctrls0.neitherReadNorWriteReqs            0                       # Number of requests that are neither read nor write
system.mem_ctrls0.perBankRdBursts::0             1904                       # Per bank write bursts
system.mem_ctrls0.perBankRdBursts::1             1915                       # Per bank write bursts
system.mem_ctrls0.perBankRdBursts::2             1935                       # Per bank write bursts
system.mem_ctrls0.perBankRdBursts::3             1955                       # Per bank write bursts
system.mem_ctrls0.perBankRdBursts::4             1902                       # Per bank write bursts
system.mem_ctrls0.perBankRdBursts::5             1882                       # Per bank write bursts
system.mem_ctrls0.perBankRdBursts::6             1872                       # Per bank write bursts
system.mem_ctrls0.perBankRdBursts::7             1836                       # Per bank write bursts
system.mem_ctrls0.perBankRdBursts::8             1987                       # Per bank write bursts
system.mem_ctrls0.perBankRdBursts::9             1905                       # Per bank write bursts
system.mem_ctrls0.perBankRdBursts::10            1954                       # Per bank write bursts
system.mem_ctrls0.perBankRdBursts::11            1864                       # Per bank write bursts
system.mem_ctrls0.perBankRdBursts::12            1880                       # Per bank write bursts
system.mem_ctrls0.perBankRdBursts::13            1896                       # Per bank write bursts
system.mem_ctrls0.perBankRdBursts::14            1934                       # Per bank write bursts
system.mem_ctrls0.perBankRdBursts::15            1931                       # Per bank write bursts
system.mem_ctrls0.perBankWrBursts::0             2110                       # Per bank write bursts
system.mem_ctrls0.perBankWrBursts::1             1965                       # Per bank write bursts
system.mem_ctrls0.perBankWrBursts::2             2094                       # Per bank write bursts
system.mem_ctrls0.perBankWrBursts::3             2099                       # Per bank write bursts
system.mem_ctrls0.perBankWrBursts::4             1831                       # Per bank write bursts
system.mem_ctrls0.perBankWrBursts::5             1917                       # Per bank write bursts
system.mem_ctrls0.perBankWrBursts::6             1943                       # Per bank write bursts
system.mem_ctrls0.perBankWrBursts::7             2070                       # Per bank write bursts
system.mem_ctrls0.perBankWrBursts::8             2402                       # Per bank write bursts
system.mem_ctrls0.perBankWrBursts::9             2235                       # Per bank write bursts
system.mem_ctrls0.perBankWrBursts::10            2154                       # Per bank write bursts
system.mem_ctrls0.perBankWrBursts::11            2169                       # Per bank write bursts
system.mem_ctrls0.perBankWrBursts::12            2014                       # Per bank write bursts
system.mem_ctrls0.perBankWrBursts::13            2121                       # Per bank write bursts
system.mem_ctrls0.perBankWrBursts::14            2069                       # Per bank write bursts
system.mem_ctrls0.perBankWrBursts::15            2019                       # Per bank write bursts
system.mem_ctrls0.numRdRetry                        0                       # Number of times read queue was full causing retry
system.mem_ctrls0.numWrRetry                       21                       # Number of times write queue was full causing retry
system.mem_ctrls0.totGap                 332541467000                       # Total gap between requests
system.mem_ctrls0.readPktSize::0                    0                       # Read request sizes (log2)
system.mem_ctrls0.readPktSize::1                    0                       # Read request sizes (log2)
system.mem_ctrls0.readPktSize::2                    0                       # Read request sizes (log2)
system.mem_ctrls0.readPktSize::3                    0                       # Read request sizes (log2)
system.mem_ctrls0.readPktSize::4                    0                       # Read request sizes (log2)
system.mem_ctrls0.readPktSize::5                    0                       # Read request sizes (log2)
system.mem_ctrls0.readPktSize::6                30865                       # Read request sizes (log2)
system.mem_ctrls0.writePktSize::0                   0                       # Write request sizes (log2)
system.mem_ctrls0.writePktSize::1                   0                       # Write request sizes (log2)
system.mem_ctrls0.writePktSize::2                   0                       # Write request sizes (log2)
system.mem_ctrls0.writePktSize::3                   0                       # Write request sizes (log2)
system.mem_ctrls0.writePktSize::4                   0                       # Write request sizes (log2)
system.mem_ctrls0.writePktSize::5                   0                       # Write request sizes (log2)
system.mem_ctrls0.writePktSize::6               33292                       # Write request sizes (log2)
system.mem_ctrls0.rdQLenPdf::0                  30552                       # What read queue length does an incoming req see
system.mem_ctrls0.rdQLenPdf::1                      0                       # What read queue length does an incoming req see
system.mem_ctrls0.rdQLenPdf::2                      0                       # What read queue length does an incoming req see
system.mem_ctrls0.rdQLenPdf::3                      0                       # What read queue length does an incoming req see
system.mem_ctrls0.rdQLenPdf::4                      0                       # What read queue length does an incoming req see
system.mem_ctrls0.rdQLenPdf::5                      0                       # What read queue length does an incoming req see
system.mem_ctrls0.rdQLenPdf::6                      0                       # What read queue length does an incoming req see
system.mem_ctrls0.rdQLenPdf::7                      0                       # What read queue length does an incoming req see
system.mem_ctrls0.rdQLenPdf::8                      0                       # What read queue length does an incoming req see
system.mem_ctrls0.rdQLenPdf::9                      0                       # What read queue length does an incoming req see
system.mem_ctrls0.rdQLenPdf::10                     0                       # What read queue length does an incoming req see
system.mem_ctrls0.rdQLenPdf::11                     0                       # What read queue length does an incoming req see
system.mem_ctrls0.rdQLenPdf::12                     0                       # What read queue length does an incoming req see
system.mem_ctrls0.rdQLenPdf::13                     0                       # What read queue length does an incoming req see
system.mem_ctrls0.rdQLenPdf::14                     0                       # What read queue length does an incoming req see
system.mem_ctrls0.rdQLenPdf::15                     0                       # What read queue length does an incoming req see
system.mem_ctrls0.rdQLenPdf::16                     0                       # What read queue length does an incoming req see
system.mem_ctrls0.rdQLenPdf::17                     0                       # What read queue length does an incoming req see
system.mem_ctrls0.rdQLenPdf::18                     0                       # What read queue length does an incoming req see
system.mem_ctrls0.rdQLenPdf::19                     0                       # What read queue length does an incoming req see
system.mem_ctrls0.rdQLenPdf::20                     0                       # What read queue length does an incoming req see
system.mem_ctrls0.rdQLenPdf::21                     0                       # What read queue length does an incoming req see
system.mem_ctrls0.rdQLenPdf::22                     0                       # What read queue length does an incoming req see
system.mem_ctrls0.rdQLenPdf::23                     0                       # What read queue length does an incoming req see
system.mem_ctrls0.rdQLenPdf::24                     0                       # What read queue length does an incoming req see
system.mem_ctrls0.rdQLenPdf::25                     0                       # What read queue length does an incoming req see
system.mem_ctrls0.rdQLenPdf::26                     0                       # What read queue length does an incoming req see
system.mem_ctrls0.rdQLenPdf::27                     0                       # What read queue length does an incoming req see
system.mem_ctrls0.rdQLenPdf::28                     0                       # What read queue length does an incoming req see
system.mem_ctrls0.rdQLenPdf::29                     0                       # What read queue length does an incoming req see
system.mem_ctrls0.rdQLenPdf::30                     0                       # What read queue length does an incoming req see
system.mem_ctrls0.rdQLenPdf::31                     0                       # What read queue length does an incoming req see
system.mem_ctrls0.wrQLenPdf::0                      0                       # What write queue length does an incoming req see
system.mem_ctrls0.wrQLenPdf::1                      0                       # What write queue length does an incoming req see
system.mem_ctrls0.wrQLenPdf::2                      0                       # What write queue length does an incoming req see
system.mem_ctrls0.wrQLenPdf::3                      0                       # What write queue length does an incoming req see
system.mem_ctrls0.wrQLenPdf::4                      0                       # What write queue length does an incoming req see
system.mem_ctrls0.wrQLenPdf::5                      0                       # What write queue length does an incoming req see
system.mem_ctrls0.wrQLenPdf::6                      0                       # What write queue length does an incoming req see
system.mem_ctrls0.wrQLenPdf::7                      0                       # What write queue length does an incoming req see
system.mem_ctrls0.wrQLenPdf::8                      0                       # What write queue length does an incoming req see
system.mem_ctrls0.wrQLenPdf::9                      0                       # What write queue length does an incoming req see
system.mem_ctrls0.wrQLenPdf::10                     0                       # What write queue length does an incoming req see
system.mem_ctrls0.wrQLenPdf::11                     0                       # What write queue length does an incoming req see
system.mem_ctrls0.wrQLenPdf::12                     0                       # What write queue length does an incoming req see
system.mem_ctrls0.wrQLenPdf::13                     0                       # What write queue length does an incoming req see
system.mem_ctrls0.wrQLenPdf::14                     0                       # What write queue length does an incoming req see
system.mem_ctrls0.wrQLenPdf::15                   178                       # What write queue length does an incoming req see
system.mem_ctrls0.wrQLenPdf::16                   252                       # What write queue length does an incoming req see
system.mem_ctrls0.wrQLenPdf::17                  1902                       # What write queue length does an incoming req see
system.mem_ctrls0.wrQLenPdf::18                  1962                       # What write queue length does an incoming req see
system.mem_ctrls0.wrQLenPdf::19                  1997                       # What write queue length does an incoming req see
system.mem_ctrls0.wrQLenPdf::20                  2006                       # What write queue length does an incoming req see
system.mem_ctrls0.wrQLenPdf::21                  1992                       # What write queue length does an incoming req see
system.mem_ctrls0.wrQLenPdf::22                  2029                       # What write queue length does an incoming req see
system.mem_ctrls0.wrQLenPdf::23                  2000                       # What write queue length does an incoming req see
system.mem_ctrls0.wrQLenPdf::24                  2061                       # What write queue length does an incoming req see
system.mem_ctrls0.wrQLenPdf::25                  2111                       # What write queue length does an incoming req see
system.mem_ctrls0.wrQLenPdf::26                  1991                       # What write queue length does an incoming req see
system.mem_ctrls0.wrQLenPdf::27                  1946                       # What write queue length does an incoming req see
system.mem_ctrls0.wrQLenPdf::28                  1970                       # What write queue length does an incoming req see
system.mem_ctrls0.wrQLenPdf::29                  1926                       # What write queue length does an incoming req see
system.mem_ctrls0.wrQLenPdf::30                  1901                       # What write queue length does an incoming req see
system.mem_ctrls0.wrQLenPdf::31                  1892                       # What write queue length does an incoming req see
system.mem_ctrls0.wrQLenPdf::32                  1886                       # What write queue length does an incoming req see
system.mem_ctrls0.wrQLenPdf::33                    65                       # What write queue length does an incoming req see
system.mem_ctrls0.wrQLenPdf::34                    58                       # What write queue length does an incoming req see
system.mem_ctrls0.wrQLenPdf::35                    58                       # What write queue length does an incoming req see
system.mem_ctrls0.wrQLenPdf::36                    57                       # What write queue length does an incoming req see
system.mem_ctrls0.wrQLenPdf::37                    59                       # What write queue length does an incoming req see
system.mem_ctrls0.wrQLenPdf::38                    57                       # What write queue length does an incoming req see
system.mem_ctrls0.wrQLenPdf::39                    50                       # What write queue length does an incoming req see
system.mem_ctrls0.wrQLenPdf::40                    49                       # What write queue length does an incoming req see
system.mem_ctrls0.wrQLenPdf::41                    45                       # What write queue length does an incoming req see
system.mem_ctrls0.wrQLenPdf::42                    45                       # What write queue length does an incoming req see
system.mem_ctrls0.wrQLenPdf::43                    39                       # What write queue length does an incoming req see
system.mem_ctrls0.wrQLenPdf::44                    35                       # What write queue length does an incoming req see
system.mem_ctrls0.wrQLenPdf::45                    34                       # What write queue length does an incoming req see
system.mem_ctrls0.wrQLenPdf::46                    43                       # What write queue length does an incoming req see
system.mem_ctrls0.wrQLenPdf::47                    52                       # What write queue length does an incoming req see
system.mem_ctrls0.wrQLenPdf::48                    55                       # What write queue length does an incoming req see
system.mem_ctrls0.wrQLenPdf::49                    46                       # What write queue length does an incoming req see
system.mem_ctrls0.wrQLenPdf::50                    39                       # What write queue length does an incoming req see
system.mem_ctrls0.wrQLenPdf::51                    37                       # What write queue length does an incoming req see
system.mem_ctrls0.wrQLenPdf::52                    35                       # What write queue length does an incoming req see
system.mem_ctrls0.wrQLenPdf::53                    34                       # What write queue length does an incoming req see
system.mem_ctrls0.wrQLenPdf::54                    30                       # What write queue length does an incoming req see
system.mem_ctrls0.wrQLenPdf::55                    27                       # What write queue length does an incoming req see
system.mem_ctrls0.wrQLenPdf::56                    26                       # What write queue length does an incoming req see
system.mem_ctrls0.wrQLenPdf::57                    21                       # What write queue length does an incoming req see
system.mem_ctrls0.wrQLenPdf::58                    16                       # What write queue length does an incoming req see
system.mem_ctrls0.wrQLenPdf::59                    15                       # What write queue length does an incoming req see
system.mem_ctrls0.wrQLenPdf::60                    12                       # What write queue length does an incoming req see
system.mem_ctrls0.wrQLenPdf::61                    11                       # What write queue length does an incoming req see
system.mem_ctrls0.wrQLenPdf::62                    17                       # What write queue length does an incoming req see
system.mem_ctrls0.wrQLenPdf::63                    34                       # What write queue length does an incoming req see
system.mem_ctrls0.bytesPerActivate::samples        16771                       # Bytes accessed per row activation
system.mem_ctrls0.bytesPerActivate::mean   243.330511                       # Bytes accessed per row activation
system.mem_ctrls0.bytesPerActivate::gmean   181.436356                       # Bytes accessed per row activation
system.mem_ctrls0.bytesPerActivate::stdev   200.598264                       # Bytes accessed per row activation
system.mem_ctrls0.bytesPerActivate::0-127         4262     25.41%     25.41% # Bytes accessed per row activation
system.mem_ctrls0.bytesPerActivate::128-255         5488     32.72%     58.14% # Bytes accessed per row activation
system.mem_ctrls0.bytesPerActivate::256-383         3548     21.16%     79.29% # Bytes accessed per row activation
system.mem_ctrls0.bytesPerActivate::384-511         1989     11.86%     91.15% # Bytes accessed per row activation
system.mem_ctrls0.bytesPerActivate::512-639          609      3.63%     94.78% # Bytes accessed per row activation
system.mem_ctrls0.bytesPerActivate::640-767          245      1.46%     96.24% # Bytes accessed per row activation
system.mem_ctrls0.bytesPerActivate::768-895          130      0.78%     97.02% # Bytes accessed per row activation
system.mem_ctrls0.bytesPerActivate::896-1023          108      0.64%     97.66% # Bytes accessed per row activation
system.mem_ctrls0.bytesPerActivate::1024-1151          392      2.34%    100.00% # Bytes accessed per row activation
system.mem_ctrls0.bytesPerActivate::total        16771                       # Bytes accessed per row activation
system.mem_ctrls0.rdPerTurnAround::samples         1860                       # Reads before turning the bus around for writes
system.mem_ctrls0.rdPerTurnAround::mean     16.434409                       # Reads before turning the bus around for writes
system.mem_ctrls0.rdPerTurnAround::stdev     6.997925                       # Reads before turning the bus around for writes
system.mem_ctrls0.rdPerTurnAround::0-3            176      9.46%      9.46% # Reads before turning the bus around for writes
system.mem_ctrls0.rdPerTurnAround::4-7             18      0.97%     10.43% # Reads before turning the bus around for writes
system.mem_ctrls0.rdPerTurnAround::8-11            21      1.13%     11.56% # Reads before turning the bus around for writes
system.mem_ctrls0.rdPerTurnAround::12-15           16      0.86%     12.42% # Reads before turning the bus around for writes
system.mem_ctrls0.rdPerTurnAround::16-19         1324     71.18%     83.60% # Reads before turning the bus around for writes
system.mem_ctrls0.rdPerTurnAround::20-23          182      9.78%     93.39% # Reads before turning the bus around for writes
system.mem_ctrls0.rdPerTurnAround::24-27           54      2.90%     96.29% # Reads before turning the bus around for writes
system.mem_ctrls0.rdPerTurnAround::28-31           34      1.83%     98.12% # Reads before turning the bus around for writes
system.mem_ctrls0.rdPerTurnAround::32-35           15      0.81%     98.92% # Reads before turning the bus around for writes
system.mem_ctrls0.rdPerTurnAround::36-39            9      0.48%     99.41% # Reads before turning the bus around for writes
system.mem_ctrls0.rdPerTurnAround::40-43            1      0.05%     99.46% # Reads before turning the bus around for writes
system.mem_ctrls0.rdPerTurnAround::44-47            2      0.11%     99.57% # Reads before turning the bus around for writes
system.mem_ctrls0.rdPerTurnAround::48-51            1      0.05%     99.62% # Reads before turning the bus around for writes
system.mem_ctrls0.rdPerTurnAround::52-55            1      0.05%     99.68% # Reads before turning the bus around for writes
system.mem_ctrls0.rdPerTurnAround::60-63            2      0.11%     99.78% # Reads before turning the bus around for writes
system.mem_ctrls0.rdPerTurnAround::68-71            2      0.11%     99.89% # Reads before turning the bus around for writes
system.mem_ctrls0.rdPerTurnAround::72-75            1      0.05%     99.95% # Reads before turning the bus around for writes
system.mem_ctrls0.rdPerTurnAround::80-83            1      0.05%    100.00% # Reads before turning the bus around for writes
system.mem_ctrls0.rdPerTurnAround::total         1860                       # Reads before turning the bus around for writes
system.mem_ctrls0.wrPerTurnAround::samples         1860                       # Writes before turning the bus around for reads
system.mem_ctrls0.wrPerTurnAround::mean     17.855914                       # Writes before turning the bus around for reads
system.mem_ctrls0.wrPerTurnAround::gmean    17.193092                       # Writes before turning the bus around for reads
system.mem_ctrls0.wrPerTurnAround::stdev     6.799257                       # Writes before turning the bus around for reads
system.mem_ctrls0.wrPerTurnAround::16-17         1658     89.14%     89.14% # Writes before turning the bus around for reads
system.mem_ctrls0.wrPerTurnAround::18-19           28      1.51%     90.65% # Writes before turning the bus around for reads
system.mem_ctrls0.wrPerTurnAround::20-21            7      0.38%     91.02% # Writes before turning the bus around for reads
system.mem_ctrls0.wrPerTurnAround::22-23            6      0.32%     91.34% # Writes before turning the bus around for reads
system.mem_ctrls0.wrPerTurnAround::24-25           16      0.86%     92.20% # Writes before turning the bus around for reads
system.mem_ctrls0.wrPerTurnAround::26-27           13      0.70%     92.90% # Writes before turning the bus around for reads
system.mem_ctrls0.wrPerTurnAround::28-29           26      1.40%     94.30% # Writes before turning the bus around for reads
system.mem_ctrls0.wrPerTurnAround::30-31            9      0.48%     94.78% # Writes before turning the bus around for reads
system.mem_ctrls0.wrPerTurnAround::32-33           24      1.29%     96.08% # Writes before turning the bus around for reads
system.mem_ctrls0.wrPerTurnAround::34-35           10      0.54%     96.61% # Writes before turning the bus around for reads
system.mem_ctrls0.wrPerTurnAround::36-37           11      0.59%     97.20% # Writes before turning the bus around for reads
system.mem_ctrls0.wrPerTurnAround::38-39            5      0.27%     97.47% # Writes before turning the bus around for reads
system.mem_ctrls0.wrPerTurnAround::40-41            7      0.38%     97.85% # Writes before turning the bus around for reads
system.mem_ctrls0.wrPerTurnAround::42-43            5      0.27%     98.12% # Writes before turning the bus around for reads
system.mem_ctrls0.wrPerTurnAround::44-45            2      0.11%     98.23% # Writes before turning the bus around for reads
system.mem_ctrls0.wrPerTurnAround::46-47            2      0.11%     98.33% # Writes before turning the bus around for reads
system.mem_ctrls0.wrPerTurnAround::48-49           14      0.75%     99.09% # Writes before turning the bus around for reads
system.mem_ctrls0.wrPerTurnAround::50-51            2      0.11%     99.19% # Writes before turning the bus around for reads
system.mem_ctrls0.wrPerTurnAround::52-53            3      0.16%     99.35% # Writes before turning the bus around for reads
system.mem_ctrls0.wrPerTurnAround::54-55            1      0.05%     99.41% # Writes before turning the bus around for reads
system.mem_ctrls0.wrPerTurnAround::58-59            2      0.11%     99.52% # Writes before turning the bus around for reads
system.mem_ctrls0.wrPerTurnAround::64-65            1      0.05%     99.57% # Writes before turning the bus around for reads
system.mem_ctrls0.wrPerTurnAround::66-67            2      0.11%     99.68% # Writes before turning the bus around for reads
system.mem_ctrls0.wrPerTurnAround::68-69            2      0.11%     99.78% # Writes before turning the bus around for reads
system.mem_ctrls0.wrPerTurnAround::70-71            1      0.05%     99.84% # Writes before turning the bus around for reads
system.mem_ctrls0.wrPerTurnAround::74-75            1      0.05%     99.89% # Writes before turning the bus around for reads
system.mem_ctrls0.wrPerTurnAround::82-83            1      0.05%     99.95% # Writes before turning the bus around for reads
system.mem_ctrls0.wrPerTurnAround::92-93            1      0.05%    100.00% # Writes before turning the bus around for reads
system.mem_ctrls0.wrPerTurnAround::total         1860                       # Writes before turning the bus around for reads
system.mem_ctrls0.totQLat                  2434848000                       # Total ticks spent queuing
system.mem_ctrls0.totMemAccLat             3007698000                       # Total ticks spent from burst creation until serviced by the DRAM
system.mem_ctrls0.totBusLat                 152760000                       # Total ticks spent in databus transfers
system.mem_ctrls0.avgQLat                    79695.21                       # Average queueing delay per DRAM burst
system.mem_ctrls0.avgBusLat                   5000.00                       # Average bus latency per DRAM burst
system.mem_ctrls0.avgMemAccLat               98445.21                       # Average memory access latency per DRAM burst
system.mem_ctrls0.avgRdBW                        5.90                       # Average DRAM read bandwidth in MiByte/s
system.mem_ctrls0.avgWrBW                        6.41                       # Average achieved write bandwidth in MiByte/s
system.mem_ctrls0.avgRdBWSys                     5.96                       # Average system read bandwidth in MiByte/s
system.mem_ctrls0.avgWrBWSys                     6.43                       # Average system write bandwidth in MiByte/s
system.mem_ctrls0.peakBW                     12800.00                       # Theoretical peak bandwidth in MiByte/s
system.mem_ctrls0.busUtil                        0.10                       # Data bus utilization in percentage
system.mem_ctrls0.busUtilRead                    0.05                       # Data bus utilization in percentage for reads
system.mem_ctrls0.busUtilWrite                   0.05                       # Data bus utilization in percentage for writes
system.mem_ctrls0.avgRdQLen                      1.00                       # Average read queue length when enqueuing
system.mem_ctrls0.avgWrQLen                     24.49                       # Average write queue length when enqueuing
system.mem_ctrls0.readRowHits                   21481                       # Number of row buffer hits during reads
system.mem_ctrls0.writeRowHits                  25512                       # Number of row buffer hits during writes
system.mem_ctrls0.readRowHitRate                70.31                       # Row buffer hit rate for reads
system.mem_ctrls0.writeRowHitRate               76.84                       # Row buffer hit rate for writes
system.mem_ctrls0.avgGap                   5183245.27                       # Average gap between requests
system.mem_ctrls0.pageHitRate                   73.71                       # Row buffer hit rate, read and write combined
system.mem_ctrls0_0.actEnergy                99831480                       # Energy for activate commands per rank (pJ)
system.mem_ctrls0_0.preEnergy                53061690                       # Energy for precharge commands per rank (pJ)
system.mem_ctrls0_0.readEnergy              228886980                       # Energy for read commands per rank (pJ)
system.mem_ctrls0_0.writeEnergy             106221780                       # Energy for write commands per rank (pJ)
system.mem_ctrls0_0.refreshEnergy        9733439040.000002                       # Energy for refresh commands per rank (pJ)
system.mem_ctrls0_0.actBackEnergy          2959283820                       # Energy for active background per rank (pJ)
system.mem_ctrls0_0.preBackEnergy           603438720                       # Energy for precharge background per rank (pJ)
system.mem_ctrls0_0.actPowerDownEnergy    23538881880                       # Energy for active power-down per rank (pJ)
system.mem_ctrls0_0.prePowerDownEnergy    13706367360                       # Energy for precharge power-down per rank (pJ)
system.mem_ctrls0_0.selfRefreshEnergy    1313642817060                       # Energy for self refresh per rank (pJ)
system.mem_ctrls0_0.totalEnergy          1364675605380                       # Total energy per rank (pJ)
system.mem_ctrls0_0.averagePower           245.444354                       # Core power per rank (mW)
system.mem_ctrls0_0.totalIdleTime        322685169250                       # Total Idle time Per DRAM Rank
system.mem_ctrls0_0.memoryStateTime::IDLE    690202000                       # Time in different power states
system.mem_ctrls0_0.memoryStateTime::REF   2136466000                       # Time in different power states
system.mem_ctrls0_0.memoryStateTime::SREF 284218177500                       # Time in different power states
system.mem_ctrls0_0.memoryStateTime::PRE_PDN  18620060250                       # Time in different power states
system.mem_ctrls0_0.memoryStateTime::ACT   1646225250                       # Time in different power states
system.mem_ctrls0_0.memoryStateTime::ACT_PDN  25221609500                       # Time in different power states
system.mem_ctrls0_1.actEnergy                94940580                       # Energy for activate commands per rank (pJ)
system.mem_ctrls0_1.preEnergy                50462115                       # Energy for precharge commands per rank (pJ)
system.mem_ctrls0_1.readEnergy              230107920                       # Energy for read commands per rank (pJ)
system.mem_ctrls0_1.writeEnergy             108857880                       # Energy for write commands per rank (pJ)
system.mem_ctrls0_1.refreshEnergy        9046271520.000002                       # Energy for refresh commands per rank (pJ)
system.mem_ctrls0_1.actBackEnergy          2817040320                       # Energy for active background per rank (pJ)
system.mem_ctrls0_1.preBackEnergy           510535680                       # Energy for precharge background per rank (pJ)
system.mem_ctrls0_1.actPowerDownEnergy    22905256200                       # Energy for active power-down per rank (pJ)
system.mem_ctrls0_1.prePowerDownEnergy    12271717440                       # Energy for precharge power-down per rank (pJ)
system.mem_ctrls0_1.selfRefreshEnergy    1314775635285                       # Energy for self refresh per rank (pJ)
system.mem_ctrls0_1.totalEnergy          1362813904410                       # Total energy per rank (pJ)
system.mem_ctrls0_1.averagePower           245.109517                       # Core power per rank (mW)
system.mem_ctrls0_1.totalIdleTime        330745499250                       # Total Idle time Per DRAM Rank
system.mem_ctrls0_1.memoryStateTime::IDLE    552300250                       # Time in different power states
system.mem_ctrls0_1.memoryStateTime::REF   2076854000                       # Time in different power states
system.mem_ctrls0_1.memoryStateTime::SREF 287383356500                       # Time in different power states
system.mem_ctrls0_1.memoryStateTime::PRE_PDN  17620162250                       # Time in different power states
system.mem_ctrls0_1.memoryStateTime::ACT   1614873500                       # Time in different power states
system.mem_ctrls0_1.memoryStateTime::ACT_PDN  25743544250                       # Time in different power states
system.mem_ctrls1.pwrStateResidencyTicks::UNDEFINED 5560020363000                       # Cumulative time (in ticks) in various power states
system.mem_ctrls1.bytes_read::ruby.dir_cntrl1      1958784                       # Number of bytes read from this memory
system.mem_ctrls1.bytes_read::total           1958784                       # Number of bytes read from this memory
system.mem_ctrls1.bytes_written::ruby.dir_cntrl1      2134656                       # Number of bytes written to this memory
system.mem_ctrls1.bytes_written::total        2134656                       # Number of bytes written to this memory
system.mem_ctrls1.num_reads::ruby.dir_cntrl1        30606                       # Number of read requests responded to by this memory
system.mem_ctrls1.num_reads::total              30606                       # Number of read requests responded to by this memory
system.mem_ctrls1.num_writes::ruby.dir_cntrl1        33354                       # Number of write requests responded to by this memory
system.mem_ctrls1.num_writes::total             33354                       # Number of write requests responded to by this memory
system.mem_ctrls1.bw_read::ruby.dir_cntrl1      5906638                       # Total read bandwidth from this memory (bytes/s)
system.mem_ctrls1.bw_read::total              5906638                       # Total read bandwidth from this memory (bytes/s)
system.mem_ctrls1.bw_write::ruby.dir_cntrl1      6436973                       # Write bandwidth from this memory (bytes/s)
system.mem_ctrls1.bw_write::total             6436973                       # Write bandwidth from this memory (bytes/s)
system.mem_ctrls1.bw_total::ruby.dir_cntrl1     12343611                       # Total bandwidth to/from this memory (bytes/s)
system.mem_ctrls1.bw_total::total            12343611                       # Total bandwidth to/from this memory (bytes/s)
system.mem_ctrls1.readReqs                      30606                       # Number of read requests accepted
system.mem_ctrls1.writeReqs                     33354                       # Number of write requests accepted
system.mem_ctrls1.readBursts                    30606                       # Number of DRAM read bursts, including those serviced by the write queue
system.mem_ctrls1.writeBursts                   33354                       # Number of DRAM write bursts, including those merged in the write queue
system.mem_ctrls1.bytesReadDRAM               1945792                       # Total number of bytes read from DRAM
system.mem_ctrls1.bytesReadWrQ                  12992                       # Total number of bytes read from write queue
system.mem_ctrls1.bytesWritten                2135168                       # Total number of bytes written to DRAM
system.mem_ctrls1.bytesReadSys                1958784                       # Total read bytes from the system interface side
system.mem_ctrls1.bytesWrittenSys             2134656                       # Total written bytes from the system interface side
system.mem_ctrls1.servicedByWrQ                   203                       # Number of DRAM read bursts serviced by the write queue
system.mem_ctrls1.mergedWrBursts                    0                       # Number of DRAM write bursts merged with an existing one
system.mem_ctrls1.neitherReadNorWriteReqs            0                       # Number of requests that are neither read nor write
system.mem_ctrls1.perBankRdBursts::0             1911                       # Per bank write bursts
system.mem_ctrls1.perBankRdBursts::1             1920                       # Per bank write bursts
system.mem_ctrls1.perBankRdBursts::2             1939                       # Per bank write bursts
system.mem_ctrls1.perBankRdBursts::3             1953                       # Per bank write bursts
system.mem_ctrls1.perBankRdBursts::4             1898                       # Per bank write bursts
system.mem_ctrls1.perBankRdBursts::5             1872                       # Per bank write bursts
system.mem_ctrls1.perBankRdBursts::6             1873                       # Per bank write bursts
system.mem_ctrls1.perBankRdBursts::7             1844                       # Per bank write bursts
system.mem_ctrls1.perBankRdBursts::8             1837                       # Per bank write bursts
system.mem_ctrls1.perBankRdBursts::9             1900                       # Per bank write bursts
system.mem_ctrls1.perBankRdBursts::10            1958                       # Per bank write bursts
system.mem_ctrls1.perBankRdBursts::11            1863                       # Per bank write bursts
system.mem_ctrls1.perBankRdBursts::12            1887                       # Per bank write bursts
system.mem_ctrls1.perBankRdBursts::13            1876                       # Per bank write bursts
system.mem_ctrls1.perBankRdBursts::14            1942                       # Per bank write bursts
system.mem_ctrls1.perBankRdBursts::15            1930                       # Per bank write bursts
system.mem_ctrls1.perBankWrBursts::0             2102                       # Per bank write bursts
system.mem_ctrls1.perBankWrBursts::1             1984                       # Per bank write bursts
system.mem_ctrls1.perBankWrBursts::2             2093                       # Per bank write bursts
system.mem_ctrls1.perBankWrBursts::3             2128                       # Per bank write bursts
system.mem_ctrls1.perBankWrBursts::4             1835                       # Per bank write bursts
system.mem_ctrls1.perBankWrBursts::5             1950                       # Per bank write bursts
system.mem_ctrls1.perBankWrBursts::6             1996                       # Per bank write bursts
system.mem_ctrls1.perBankWrBursts::7             2075                       # Per bank write bursts
system.mem_ctrls1.perBankWrBursts::8             2326                       # Per bank write bursts
system.mem_ctrls1.perBankWrBursts::9             2229                       # Per bank write bursts
system.mem_ctrls1.perBankWrBursts::10            2252                       # Per bank write bursts
system.mem_ctrls1.perBankWrBursts::11            2169                       # Per bank write bursts
system.mem_ctrls1.perBankWrBursts::12            2019                       # Per bank write bursts
system.mem_ctrls1.perBankWrBursts::13            2125                       # Per bank write bursts
system.mem_ctrls1.perBankWrBursts::14            2071                       # Per bank write bursts
system.mem_ctrls1.perBankWrBursts::15            2008                       # Per bank write bursts
system.mem_ctrls1.numRdRetry                        0                       # Number of times read queue was full causing retry
system.mem_ctrls1.numWrRetry                       93                       # Number of times write queue was full causing retry
system.mem_ctrls1.totGap                 334989821000                       # Total gap between requests
system.mem_ctrls1.readPktSize::0                    0                       # Read request sizes (log2)
system.mem_ctrls1.readPktSize::1                    0                       # Read request sizes (log2)
system.mem_ctrls1.readPktSize::2                    0                       # Read request sizes (log2)
system.mem_ctrls1.readPktSize::3                    0                       # Read request sizes (log2)
system.mem_ctrls1.readPktSize::4                    0                       # Read request sizes (log2)
system.mem_ctrls1.readPktSize::5                    0                       # Read request sizes (log2)
system.mem_ctrls1.readPktSize::6                30606                       # Read request sizes (log2)
system.mem_ctrls1.writePktSize::0                   0                       # Write request sizes (log2)
system.mem_ctrls1.writePktSize::1                   0                       # Write request sizes (log2)
system.mem_ctrls1.writePktSize::2                   0                       # Write request sizes (log2)
system.mem_ctrls1.writePktSize::3                   0                       # Write request sizes (log2)
system.mem_ctrls1.writePktSize::4                   0                       # Write request sizes (log2)
system.mem_ctrls1.writePktSize::5                   0                       # Write request sizes (log2)
system.mem_ctrls1.writePktSize::6               33354                       # Write request sizes (log2)
system.mem_ctrls1.rdQLenPdf::0                  30403                       # What read queue length does an incoming req see
system.mem_ctrls1.rdQLenPdf::1                      0                       # What read queue length does an incoming req see
system.mem_ctrls1.rdQLenPdf::2                      0                       # What read queue length does an incoming req see
system.mem_ctrls1.rdQLenPdf::3                      0                       # What read queue length does an incoming req see
system.mem_ctrls1.rdQLenPdf::4                      0                       # What read queue length does an incoming req see
system.mem_ctrls1.rdQLenPdf::5                      0                       # What read queue length does an incoming req see
system.mem_ctrls1.rdQLenPdf::6                      0                       # What read queue length does an incoming req see
system.mem_ctrls1.rdQLenPdf::7                      0                       # What read queue length does an incoming req see
system.mem_ctrls1.rdQLenPdf::8                      0                       # What read queue length does an incoming req see
system.mem_ctrls1.rdQLenPdf::9                      0                       # What read queue length does an incoming req see
system.mem_ctrls1.rdQLenPdf::10                     0                       # What read queue length does an incoming req see
system.mem_ctrls1.rdQLenPdf::11                     0                       # What read queue length does an incoming req see
system.mem_ctrls1.rdQLenPdf::12                     0                       # What read queue length does an incoming req see
system.mem_ctrls1.rdQLenPdf::13                     0                       # What read queue length does an incoming req see
system.mem_ctrls1.rdQLenPdf::14                     0                       # What read queue length does an incoming req see
system.mem_ctrls1.rdQLenPdf::15                     0                       # What read queue length does an incoming req see
system.mem_ctrls1.rdQLenPdf::16                     0                       # What read queue length does an incoming req see
system.mem_ctrls1.rdQLenPdf::17                     0                       # What read queue length does an incoming req see
system.mem_ctrls1.rdQLenPdf::18                     0                       # What read queue length does an incoming req see
system.mem_ctrls1.rdQLenPdf::19                     0                       # What read queue length does an incoming req see
system.mem_ctrls1.rdQLenPdf::20                     0                       # What read queue length does an incoming req see
system.mem_ctrls1.rdQLenPdf::21                     0                       # What read queue length does an incoming req see
system.mem_ctrls1.rdQLenPdf::22                     0                       # What read queue length does an incoming req see
system.mem_ctrls1.rdQLenPdf::23                     0                       # What read queue length does an incoming req see
system.mem_ctrls1.rdQLenPdf::24                     0                       # What read queue length does an incoming req see
system.mem_ctrls1.rdQLenPdf::25                     0                       # What read queue length does an incoming req see
system.mem_ctrls1.rdQLenPdf::26                     0                       # What read queue length does an incoming req see
system.mem_ctrls1.rdQLenPdf::27                     0                       # What read queue length does an incoming req see
system.mem_ctrls1.rdQLenPdf::28                     0                       # What read queue length does an incoming req see
system.mem_ctrls1.rdQLenPdf::29                     0                       # What read queue length does an incoming req see
system.mem_ctrls1.rdQLenPdf::30                     0                       # What read queue length does an incoming req see
system.mem_ctrls1.rdQLenPdf::31                     0                       # What read queue length does an incoming req see
system.mem_ctrls1.wrQLenPdf::0                      0                       # What write queue length does an incoming req see
system.mem_ctrls1.wrQLenPdf::1                      0                       # What write queue length does an incoming req see
system.mem_ctrls1.wrQLenPdf::2                      0                       # What write queue length does an incoming req see
system.mem_ctrls1.wrQLenPdf::3                      0                       # What write queue length does an incoming req see
system.mem_ctrls1.wrQLenPdf::4                      0                       # What write queue length does an incoming req see
system.mem_ctrls1.wrQLenPdf::5                      0                       # What write queue length does an incoming req see
system.mem_ctrls1.wrQLenPdf::6                      0                       # What write queue length does an incoming req see
system.mem_ctrls1.wrQLenPdf::7                      0                       # What write queue length does an incoming req see
system.mem_ctrls1.wrQLenPdf::8                      0                       # What write queue length does an incoming req see
system.mem_ctrls1.wrQLenPdf::9                      0                       # What write queue length does an incoming req see
system.mem_ctrls1.wrQLenPdf::10                     0                       # What write queue length does an incoming req see
system.mem_ctrls1.wrQLenPdf::11                     0                       # What write queue length does an incoming req see
system.mem_ctrls1.wrQLenPdf::12                     0                       # What write queue length does an incoming req see
system.mem_ctrls1.wrQLenPdf::13                     0                       # What write queue length does an incoming req see
system.mem_ctrls1.wrQLenPdf::14                     0                       # What write queue length does an incoming req see
system.mem_ctrls1.wrQLenPdf::15                   176                       # What write queue length does an incoming req see
system.mem_ctrls1.wrQLenPdf::16                   253                       # What write queue length does an incoming req see
system.mem_ctrls1.wrQLenPdf::17                  1895                       # What write queue length does an incoming req see
system.mem_ctrls1.wrQLenPdf::18                  1935                       # What write queue length does an incoming req see
system.mem_ctrls1.wrQLenPdf::19                  1982                       # What write queue length does an incoming req see
system.mem_ctrls1.wrQLenPdf::20                  1969                       # What write queue length does an incoming req see
system.mem_ctrls1.wrQLenPdf::21                  1924                       # What write queue length does an incoming req see
system.mem_ctrls1.wrQLenPdf::22                  1988                       # What write queue length does an incoming req see
system.mem_ctrls1.wrQLenPdf::23                  1962                       # What write queue length does an incoming req see
system.mem_ctrls1.wrQLenPdf::24                  2005                       # What write queue length does an incoming req see
system.mem_ctrls1.wrQLenPdf::25                  2084                       # What write queue length does an incoming req see
system.mem_ctrls1.wrQLenPdf::26                  1954                       # What write queue length does an incoming req see
system.mem_ctrls1.wrQLenPdf::27                  1911                       # What write queue length does an incoming req see
system.mem_ctrls1.wrQLenPdf::28                  1900                       # What write queue length does an incoming req see
system.mem_ctrls1.wrQLenPdf::29                  1892                       # What write queue length does an incoming req see
system.mem_ctrls1.wrQLenPdf::30                  1877                       # What write queue length does an incoming req see
system.mem_ctrls1.wrQLenPdf::31                  1864                       # What write queue length does an incoming req see
system.mem_ctrls1.wrQLenPdf::32                  1859                       # What write queue length does an incoming req see
system.mem_ctrls1.wrQLenPdf::33                    82                       # What write queue length does an incoming req see
system.mem_ctrls1.wrQLenPdf::34                    75                       # What write queue length does an incoming req see
system.mem_ctrls1.wrQLenPdf::35                    74                       # What write queue length does an incoming req see
system.mem_ctrls1.wrQLenPdf::36                    71                       # What write queue length does an incoming req see
system.mem_ctrls1.wrQLenPdf::37                    69                       # What write queue length does an incoming req see
system.mem_ctrls1.wrQLenPdf::38                    71                       # What write queue length does an incoming req see
system.mem_ctrls1.wrQLenPdf::39                    62                       # What write queue length does an incoming req see
system.mem_ctrls1.wrQLenPdf::40                    64                       # What write queue length does an incoming req see
system.mem_ctrls1.wrQLenPdf::41                    63                       # What write queue length does an incoming req see
system.mem_ctrls1.wrQLenPdf::42                    63                       # What write queue length does an incoming req see
system.mem_ctrls1.wrQLenPdf::43                    62                       # What write queue length does an incoming req see
system.mem_ctrls1.wrQLenPdf::44                    58                       # What write queue length does an incoming req see
system.mem_ctrls1.wrQLenPdf::45                    55                       # What write queue length does an incoming req see
system.mem_ctrls1.wrQLenPdf::46                    60                       # What write queue length does an incoming req see
system.mem_ctrls1.wrQLenPdf::47                    58                       # What write queue length does an incoming req see
system.mem_ctrls1.wrQLenPdf::48                    59                       # What write queue length does an incoming req see
system.mem_ctrls1.wrQLenPdf::49                    60                       # What write queue length does an incoming req see
system.mem_ctrls1.wrQLenPdf::50                    59                       # What write queue length does an incoming req see
system.mem_ctrls1.wrQLenPdf::51                    50                       # What write queue length does an incoming req see
system.mem_ctrls1.wrQLenPdf::52                    53                       # What write queue length does an incoming req see
system.mem_ctrls1.wrQLenPdf::53                    47                       # What write queue length does an incoming req see
system.mem_ctrls1.wrQLenPdf::54                    54                       # What write queue length does an incoming req see
system.mem_ctrls1.wrQLenPdf::55                    49                       # What write queue length does an incoming req see
system.mem_ctrls1.wrQLenPdf::56                    52                       # What write queue length does an incoming req see
system.mem_ctrls1.wrQLenPdf::57                    56                       # What write queue length does an incoming req see
system.mem_ctrls1.wrQLenPdf::58                    61                       # What write queue length does an incoming req see
system.mem_ctrls1.wrQLenPdf::59                    55                       # What write queue length does an incoming req see
system.mem_ctrls1.wrQLenPdf::60                    47                       # What write queue length does an incoming req see
system.mem_ctrls1.wrQLenPdf::61                    42                       # What write queue length does an incoming req see
system.mem_ctrls1.wrQLenPdf::62                    53                       # What write queue length does an incoming req see
system.mem_ctrls1.wrQLenPdf::63                   140                       # What write queue length does an incoming req see
system.mem_ctrls1.bytesPerActivate::samples        16222                       # Bytes accessed per row activation
system.mem_ctrls1.bytesPerActivate::mean   251.569474                       # Bytes accessed per row activation
system.mem_ctrls1.bytesPerActivate::gmean   185.786501                       # Bytes accessed per row activation
system.mem_ctrls1.bytesPerActivate::stdev   208.238382                       # Bytes accessed per row activation
system.mem_ctrls1.bytesPerActivate::0-127         3935     24.26%     24.26% # Bytes accessed per row activation
system.mem_ctrls1.bytesPerActivate::128-255         5304     32.70%     56.95% # Bytes accessed per row activation
system.mem_ctrls1.bytesPerActivate::256-383         2836     17.48%     74.44% # Bytes accessed per row activation
system.mem_ctrls1.bytesPerActivate::384-511         2610     16.09%     90.53% # Bytes accessed per row activation
system.mem_ctrls1.bytesPerActivate::512-639          619      3.82%     94.34% # Bytes accessed per row activation
system.mem_ctrls1.bytesPerActivate::640-767          241      1.49%     95.83% # Bytes accessed per row activation
system.mem_ctrls1.bytesPerActivate::768-895          147      0.91%     96.73% # Bytes accessed per row activation
system.mem_ctrls1.bytesPerActivate::896-1023          113      0.70%     97.43% # Bytes accessed per row activation
system.mem_ctrls1.bytesPerActivate::1024-1151          417      2.57%    100.00% # Bytes accessed per row activation
system.mem_ctrls1.bytesPerActivate::total        16222                       # Bytes accessed per row activation
system.mem_ctrls1.rdPerTurnAround::samples         1845                       # Reads before turning the bus around for writes
system.mem_ctrls1.rdPerTurnAround::mean     16.486721                       # Reads before turning the bus around for writes
system.mem_ctrls1.rdPerTurnAround::stdev     6.605186                       # Reads before turning the bus around for writes
system.mem_ctrls1.rdPerTurnAround::0-3            149      8.08%      8.08% # Reads before turning the bus around for writes
system.mem_ctrls1.rdPerTurnAround::4-7             19      1.03%      9.11% # Reads before turning the bus around for writes
system.mem_ctrls1.rdPerTurnAround::8-11            21      1.14%     10.24% # Reads before turning the bus around for writes
system.mem_ctrls1.rdPerTurnAround::12-15           17      0.92%     11.17% # Reads before turning the bus around for writes
system.mem_ctrls1.rdPerTurnAround::16-19         1330     72.09%     83.25% # Reads before turning the bus around for writes
system.mem_ctrls1.rdPerTurnAround::20-23          195     10.57%     93.82% # Reads before turning the bus around for writes
system.mem_ctrls1.rdPerTurnAround::24-27           55      2.98%     96.80% # Reads before turning the bus around for writes
system.mem_ctrls1.rdPerTurnAround::28-31           30      1.63%     98.43% # Reads before turning the bus around for writes
system.mem_ctrls1.rdPerTurnAround::32-35           11      0.60%     99.02% # Reads before turning the bus around for writes
system.mem_ctrls1.rdPerTurnAround::36-39            8      0.43%     99.46% # Reads before turning the bus around for writes
system.mem_ctrls1.rdPerTurnAround::40-43            1      0.05%     99.51% # Reads before turning the bus around for writes
system.mem_ctrls1.rdPerTurnAround::44-47            5      0.27%     99.78% # Reads before turning the bus around for writes
system.mem_ctrls1.rdPerTurnAround::60-63            1      0.05%     99.84% # Reads before turning the bus around for writes
system.mem_ctrls1.rdPerTurnAround::68-71            1      0.05%     99.89% # Reads before turning the bus around for writes
system.mem_ctrls1.rdPerTurnAround::72-75            1      0.05%     99.95% # Reads before turning the bus around for writes
system.mem_ctrls1.rdPerTurnAround::80-83            1      0.05%    100.00% # Reads before turning the bus around for writes
system.mem_ctrls1.rdPerTurnAround::total         1845                       # Reads before turning the bus around for writes
system.mem_ctrls1.wrPerTurnAround::samples         1845                       # Writes before turning the bus around for reads
system.mem_ctrls1.wrPerTurnAround::mean     18.082385                       # Writes before turning the bus around for reads
system.mem_ctrls1.wrPerTurnAround::gmean    17.240923                       # Writes before turning the bus around for reads
system.mem_ctrls1.wrPerTurnAround::stdev     8.223936                       # Writes before turning the bus around for reads
system.mem_ctrls1.wrPerTurnAround::16-17         1663     90.14%     90.14% # Writes before turning the bus around for reads
system.mem_ctrls1.wrPerTurnAround::18-19           21      1.14%     91.27% # Writes before turning the bus around for reads
system.mem_ctrls1.wrPerTurnAround::20-21            2      0.11%     91.38% # Writes before turning the bus around for reads
system.mem_ctrls1.wrPerTurnAround::22-23            4      0.22%     91.60% # Writes before turning the bus around for reads
system.mem_ctrls1.wrPerTurnAround::24-25           10      0.54%     92.14% # Writes before turning the bus around for reads
system.mem_ctrls1.wrPerTurnAround::26-27            3      0.16%     92.30% # Writes before turning the bus around for reads
system.mem_ctrls1.wrPerTurnAround::28-29           31      1.68%     93.98% # Writes before turning the bus around for reads
system.mem_ctrls1.wrPerTurnAround::30-31            4      0.22%     94.20% # Writes before turning the bus around for reads
system.mem_ctrls1.wrPerTurnAround::32-33           22      1.19%     95.39% # Writes before turning the bus around for reads
system.mem_ctrls1.wrPerTurnAround::34-35           12      0.65%     96.04% # Writes before turning the bus around for reads
system.mem_ctrls1.wrPerTurnAround::36-37           11      0.60%     96.64% # Writes before turning the bus around for reads
system.mem_ctrls1.wrPerTurnAround::38-39            7      0.38%     97.02% # Writes before turning the bus around for reads
system.mem_ctrls1.wrPerTurnAround::40-41            4      0.22%     97.24% # Writes before turning the bus around for reads
system.mem_ctrls1.wrPerTurnAround::42-43            3      0.16%     97.40% # Writes before turning the bus around for reads
system.mem_ctrls1.wrPerTurnAround::44-45            6      0.33%     97.72% # Writes before turning the bus around for reads
system.mem_ctrls1.wrPerTurnAround::46-47            3      0.16%     97.89% # Writes before turning the bus around for reads
system.mem_ctrls1.wrPerTurnAround::48-49           13      0.70%     98.59% # Writes before turning the bus around for reads
system.mem_ctrls1.wrPerTurnAround::50-51            2      0.11%     98.70% # Writes before turning the bus around for reads
system.mem_ctrls1.wrPerTurnAround::52-53            2      0.11%     98.81% # Writes before turning the bus around for reads
system.mem_ctrls1.wrPerTurnAround::54-55            1      0.05%     98.86% # Writes before turning the bus around for reads
system.mem_ctrls1.wrPerTurnAround::58-59            2      0.11%     98.97% # Writes before turning the bus around for reads
system.mem_ctrls1.wrPerTurnAround::60-61            1      0.05%     99.02% # Writes before turning the bus around for reads
system.mem_ctrls1.wrPerTurnAround::62-63            2      0.11%     99.13% # Writes before turning the bus around for reads
system.mem_ctrls1.wrPerTurnAround::64-65            2      0.11%     99.24% # Writes before turning the bus around for reads
system.mem_ctrls1.wrPerTurnAround::66-67            2      0.11%     99.35% # Writes before turning the bus around for reads
system.mem_ctrls1.wrPerTurnAround::68-69            2      0.11%     99.46% # Writes before turning the bus around for reads
system.mem_ctrls1.wrPerTurnAround::72-73            4      0.22%     99.67% # Writes before turning the bus around for reads
system.mem_ctrls1.wrPerTurnAround::74-75            1      0.05%     99.73% # Writes before turning the bus around for reads
system.mem_ctrls1.wrPerTurnAround::80-81            1      0.05%     99.78% # Writes before turning the bus around for reads
system.mem_ctrls1.wrPerTurnAround::88-89            1      0.05%     99.84% # Writes before turning the bus around for reads
system.mem_ctrls1.wrPerTurnAround::96-97            1      0.05%     99.89% # Writes before turning the bus around for reads
system.mem_ctrls1.wrPerTurnAround::104-105            1      0.05%     99.95% # Writes before turning the bus around for reads
system.mem_ctrls1.wrPerTurnAround::120-121            1      0.05%    100.00% # Writes before turning the bus around for reads
system.mem_ctrls1.wrPerTurnAround::total         1845                       # Writes before turning the bus around for reads
system.mem_ctrls1.totQLat                  2359223746                       # Total ticks spent queuing
system.mem_ctrls1.totMemAccLat             2929279996                       # Total ticks spent from burst creation until serviced by the DRAM
system.mem_ctrls1.totBusLat                 152015000                       # Total ticks spent in databus transfers
system.mem_ctrls1.avgQLat                    77598.39                       # Average queueing delay per DRAM burst
system.mem_ctrls1.avgBusLat                   5000.00                       # Average bus latency per DRAM burst
system.mem_ctrls1.avgMemAccLat               96348.39                       # Average memory access latency per DRAM burst
system.mem_ctrls1.avgRdBW                        5.87                       # Average DRAM read bandwidth in MiByte/s
system.mem_ctrls1.avgWrBW                        6.44                       # Average achieved write bandwidth in MiByte/s
system.mem_ctrls1.avgRdBWSys                     5.91                       # Average system read bandwidth in MiByte/s
system.mem_ctrls1.avgWrBWSys                     6.44                       # Average system write bandwidth in MiByte/s
system.mem_ctrls1.peakBW                     12800.00                       # Theoretical peak bandwidth in MiByte/s
system.mem_ctrls1.busUtil                        0.10                       # Data bus utilization in percentage
system.mem_ctrls1.busUtilRead                    0.05                       # Data bus utilization in percentage for reads
system.mem_ctrls1.busUtilWrite                   0.05                       # Data bus utilization in percentage for writes
system.mem_ctrls1.avgRdQLen                      1.00                       # Average read queue length when enqueuing
system.mem_ctrls1.avgWrQLen                     25.79                       # Average write queue length when enqueuing
system.mem_ctrls1.readRowHits                   21519                       # Number of row buffer hits during reads
system.mem_ctrls1.writeRowHits                  26024                       # Number of row buffer hits during writes
system.mem_ctrls1.readRowHitRate                70.78                       # Row buffer hit rate for reads
system.mem_ctrls1.writeRowHitRate               78.02                       # Row buffer hit rate for writes
system.mem_ctrls1.avgGap                   5237489.38                       # Average gap between requests
system.mem_ctrls1.pageHitRate                   74.57                       # Row buffer hit rate, read and write combined
system.mem_ctrls1_0.actEnergy                98153580                       # Energy for activate commands per rank (pJ)
system.mem_ctrls1_0.preEnergy                52169865                       # Energy for precharge commands per rank (pJ)
system.mem_ctrls1_0.readEnergy              229822320                       # Energy for read commands per rank (pJ)
system.mem_ctrls1_0.writeEnergy             106869060                       # Energy for write commands per rank (pJ)
system.mem_ctrls1_0.refreshEnergy        9589613280.000002                       # Energy for refresh commands per rank (pJ)
system.mem_ctrls1_0.actBackEnergy          2908807470                       # Energy for active background per rank (pJ)
system.mem_ctrls1_0.preBackEnergy           606678240                       # Energy for precharge background per rank (pJ)
system.mem_ctrls1_0.actPowerDownEnergy    23420005530                       # Energy for active power-down per rank (pJ)
system.mem_ctrls1_0.prePowerDownEnergy    13333323840                       # Energy for precharge power-down per rank (pJ)
system.mem_ctrls1_0.selfRefreshEnergy    1313925932355                       # Energy for self refresh per rank (pJ)
system.mem_ctrls1_0.totalEnergy          1364273933100                       # Total energy per rank (pJ)
system.mem_ctrls1_0.averagePower           245.372111                       # Core power per rank (mW)
system.mem_ctrls1_0.totalIdleTime        330800522250                       # Total Idle time Per DRAM Rank
system.mem_ctrls1_0.memoryStateTime::IDLE    696099250                       # Time in different power states
system.mem_ctrls1_0.memoryStateTime::REF   2123546000                       # Time in different power states
system.mem_ctrls1_0.memoryStateTime::SREF 287196027000                       # Time in different power states
system.mem_ctrls1_0.memoryStateTime::PRE_PDN  18367903750                       # Time in different power states
system.mem_ctrls1_0.memoryStateTime::ACT   1586144750                       # Time in different power states
system.mem_ctrls1_0.memoryStateTime::ACT_PDN  25239095750                       # Time in different power states
system.mem_ctrls1_1.actEnergy                90856500                       # Energy for activate commands per rank (pJ)
system.mem_ctrls1_1.preEnergy                48291375                       # Energy for precharge commands per rank (pJ)
system.mem_ctrls1_1.readEnergy              227951640                       # Energy for read commands per rank (pJ)
system.mem_ctrls1_1.writeEnergy             108523800                       # Energy for write commands per rank (pJ)
system.mem_ctrls1_1.refreshEnergy        8885850480.000002                       # Energy for refresh commands per rank (pJ)
system.mem_ctrls1_1.actBackEnergy          2853566490                       # Energy for active background per rank (pJ)
system.mem_ctrls1_1.preBackEnergy           510350400                       # Energy for precharge background per rank (pJ)
system.mem_ctrls1_1.actPowerDownEnergy    22360493520                       # Energy for active power-down per rank (pJ)
system.mem_ctrls1_1.prePowerDownEnergy    11980750080                       # Energy for precharge power-down per rank (pJ)
system.mem_ctrls1_1.selfRefreshEnergy    1315212919500                       # Energy for self refresh per rank (pJ)
system.mem_ctrls1_1.totalEnergy          1362282394455                       # Total energy per rank (pJ)
system.mem_ctrls1_1.averagePower           245.013922                       # Core power per rank (mW)
system.mem_ctrls1_1.totalIdleTime        330631675750                       # Total Idle time Per DRAM Rank
system.mem_ctrls1_1.memoryStateTime::IDLE    570087750                       # Time in different power states
system.mem_ctrls1_1.memoryStateTime::REF   2056804000                       # Time in different power states
system.mem_ctrls1_1.memoryStateTime::SREF 288060278500                       # Time in different power states
system.mem_ctrls1_1.memoryStateTime::PRE_PDN  17484938500                       # Time in different power states
system.mem_ctrls1_1.memoryStateTime::ACT   1721337250                       # Time in different power states
system.mem_ctrls1_1.memoryStateTime::ACT_PDN  25087399000                       # Time in different power states
system.mem_ctrls2.pwrStateResidencyTicks::UNDEFINED 5560020363000                       # Cumulative time (in ticks) in various power states
system.mem_ctrls2.bytes_read::ruby.dir_cntrl2      1954560                       # Number of bytes read from this memory
system.mem_ctrls2.bytes_read::total           1954560                       # Number of bytes read from this memory
system.mem_ctrls2.bytes_written::ruby.dir_cntrl2      2118720                       # Number of bytes written to this memory
system.mem_ctrls2.bytes_written::total        2118720                       # Number of bytes written to this memory
system.mem_ctrls2.num_reads::ruby.dir_cntrl2        30540                       # Number of read requests responded to by this memory
system.mem_ctrls2.num_reads::total              30540                       # Number of read requests responded to by this memory
system.mem_ctrls2.num_writes::ruby.dir_cntrl2        33105                       # Number of write requests responded to by this memory
system.mem_ctrls2.num_writes::total             33105                       # Number of write requests responded to by this memory
system.mem_ctrls2.bw_read::ruby.dir_cntrl2      5893900                       # Total read bandwidth from this memory (bytes/s)
system.mem_ctrls2.bw_read::total              5893900                       # Total read bandwidth from this memory (bytes/s)
system.mem_ctrls2.bw_write::ruby.dir_cntrl2      6388919                       # Write bandwidth from this memory (bytes/s)
system.mem_ctrls2.bw_write::total             6388919                       # Write bandwidth from this memory (bytes/s)
system.mem_ctrls2.bw_total::ruby.dir_cntrl2     12282819                       # Total bandwidth to/from this memory (bytes/s)
system.mem_ctrls2.bw_total::total            12282819                       # Total bandwidth to/from this memory (bytes/s)
system.mem_ctrls2.readReqs                      30540                       # Number of read requests accepted
system.mem_ctrls2.writeReqs                     33105                       # Number of write requests accepted
system.mem_ctrls2.readBursts                    30540                       # Number of DRAM read bursts, including those serviced by the write queue
system.mem_ctrls2.writeBursts                   33105                       # Number of DRAM write bursts, including those merged in the write queue
system.mem_ctrls2.bytesReadDRAM               1941120                       # Total number of bytes read from DRAM
system.mem_ctrls2.bytesReadWrQ                  13440                       # Total number of bytes read from write queue
system.mem_ctrls2.bytesWritten                2119296                       # Total number of bytes written to DRAM
system.mem_ctrls2.bytesReadSys                1954560                       # Total read bytes from the system interface side
system.mem_ctrls2.bytesWrittenSys             2118720                       # Total written bytes from the system interface side
system.mem_ctrls2.servicedByWrQ                   210                       # Number of DRAM read bursts serviced by the write queue
system.mem_ctrls2.mergedWrBursts                    0                       # Number of DRAM write bursts merged with an existing one
system.mem_ctrls2.neitherReadNorWriteReqs            0                       # Number of requests that are neither read nor write
system.mem_ctrls2.perBankRdBursts::0             1905                       # Per bank write bursts
system.mem_ctrls2.perBankRdBursts::1             1908                       # Per bank write bursts
system.mem_ctrls2.perBankRdBursts::2             1928                       # Per bank write bursts
system.mem_ctrls2.perBankRdBursts::3             1954                       # Per bank write bursts
system.mem_ctrls2.perBankRdBursts::4             1904                       # Per bank write bursts
system.mem_ctrls2.perBankRdBursts::5             1870                       # Per bank write bursts
system.mem_ctrls2.perBankRdBursts::6             1877                       # Per bank write bursts
system.mem_ctrls2.perBankRdBursts::7             1851                       # Per bank write bursts
system.mem_ctrls2.perBankRdBursts::8             1828                       # Per bank write bursts
system.mem_ctrls2.perBankRdBursts::9             1880                       # Per bank write bursts
system.mem_ctrls2.perBankRdBursts::10            1948                       # Per bank write bursts
system.mem_ctrls2.perBankRdBursts::11            1860                       # Per bank write bursts
system.mem_ctrls2.perBankRdBursts::12            1878                       # Per bank write bursts
system.mem_ctrls2.perBankRdBursts::13            1876                       # Per bank write bursts
system.mem_ctrls2.perBankRdBursts::14            1931                       # Per bank write bursts
system.mem_ctrls2.perBankRdBursts::15            1932                       # Per bank write bursts
system.mem_ctrls2.perBankWrBursts::0             2105                       # Per bank write bursts
system.mem_ctrls2.perBankWrBursts::1             1980                       # Per bank write bursts
system.mem_ctrls2.perBankWrBursts::2             2107                       # Per bank write bursts
system.mem_ctrls2.perBankWrBursts::3             2113                       # Per bank write bursts
system.mem_ctrls2.perBankWrBursts::4             1824                       # Per bank write bursts
system.mem_ctrls2.perBankWrBursts::5             1896                       # Per bank write bursts
system.mem_ctrls2.perBankWrBursts::6             1953                       # Per bank write bursts
system.mem_ctrls2.perBankWrBursts::7             2084                       # Per bank write bursts
system.mem_ctrls2.perBankWrBursts::8             2322                       # Per bank write bursts
[...]
system.ruby.L1Cache_Controller.IS.Data_all_Acks::total       473594                      
system.ruby.L1Cache_Controller.IS.WB_Ack |      860995    100.00%    100.00% |           0      0.00%    100.00% |           0      0.00%    100.00% |           0      0.00%    100.00% |           0      0.00%    100.00% |           0      0.00%    100.00% |           0      0.00%    100.00% |           0      0.00%    100.00%
system.ruby.L1Cache_Controller.IS.WB_Ack::total       860995                      
system.ruby.L1Cache_Controller.IS.PF_Load |      493880    100.00%    100.00% |           0      0.00%    100.00% |           0      0.00%    100.00% |           0      0.00%    100.00% |           0      0.00%    100.00% |           0      0.00%    100.00% |           0      0.00%    100.00% |           0      0.00%    100.00%
system.ruby.L1Cache_Controller.IS.PF_Load::total       493880                      
system.ruby.L1Cache_Controller.IS.PF_Ifetch |      472873    100.00%    100.00% |           0      0.00%    100.00% |           0      0.00%    100.00% |           0      0.00%    100.00% |           0      0.00%    100.00% |           0      0.00%    100.00% |           0      0.00%    100.00% |           0      0.00%    100.00%
system.ruby.L1Cache_Controller.IS.PF_Ifetch::total       472873                      
system.ruby.L1Cache_Controller.IM.Data_all_Acks |      638692    100.00%    100.00% |           0      0.00%    100.00% |           0      0.00%    100.00% |           0      0.00%    100.00% |           0      0.00%    100.00% |           0      0.00%    100.00% |           0      0.00%    100.00% |           0      0.00%    100.00%
system.ruby.L1Cache_Controller.IM.Data_all_Acks::total       638692                      
system.ruby.L1Cache_Controller.IM.PF_Store |      531422    100.00%    100.00% |           0      0.00%    100.00% |           0      0.00%    100.00% |           0      0.00%    100.00% |           0      0.00%    100.00% |           0      0.00%    100.00% |           0      0.00%    100.00% |           0      0.00%    100.00%
system.ruby.L1Cache_Controller.IM.PF_Store::total       531422                      
system.ruby.L1Cache_Controller.SM.Fwd_GETX |      107259    100.00%    100.00% |           0      0.00%    100.00% |           0      0.00%    100.00% |           0      0.00%    100.00% |           0      0.00%    100.00% |           0      0.00%    100.00% |           0      0.00%    100.00% |           0      0.00%    100.00%
system.ruby.L1Cache_Controller.SM.Fwd_GETX::total       107259                      
system.ruby.L1Cache_Controller.M_I.WB_Ack |      638210    100.00%    100.00% |           0      0.00%    100.00% |           0      0.00%    100.00% |           0      0.00%    100.00% |           0      0.00%    100.00% |           0      0.00%    100.00% |           0      0.00%    100.00% |           0      0.00%    100.00%
system.ruby.L1Cache_Controller.M_I.WB_Ack::total       638210                      
system.ruby.L2Cache_Controller.L1_GET_INSTR |       63047     13.32%     13.32% |       58086     12.27%     25.58% |       54609     11.53%     37.12% |       58332     12.32%     49.44% |       56143     11.86%     61.29% |       65644     13.86%     75.16% |       63322     13.37%     88.53% |       54296     11.47%    100.00%
system.ruby.L2Cache_Controller.L1_GET_INSTR::total       473479                      
system.ruby.L2Cache_Controller.L1_GETS   |       79996     16.18%     16.18% |       61970     12.53%     28.71% |       61716     12.48%     41.19% |       59077     11.95%     53.14% |       57537     11.64%     64.77% |       56894     11.51%     76.28% |       55827     11.29%     87.57% |       61469     12.43%    100.00%
system.ruby.L2Cache_Controller.L1_GETS::total       494486                      
system.ruby.L2Cache_Controller.L1_GETX   |       86248     13.50%     13.50% |       79133     12.39%     25.89% |       79738     12.48%     38.38% |       78899     12.35%     50.73% |       77418     12.12%     62.85% |       80320     12.58%     75.43% |       77755     12.17%     87.60% |       79181     12.40%    100.00%
system.ruby.L2Cache_Controller.L1_GETX::total       638692                      
system.ruby.L2Cache_Controller.L1_PUTX   |      211195     14.09%     14.09% |      186188     12.42%     26.51% |      183154     12.22%     38.72% |      183633     12.25%     50.97% |      178906     11.93%     62.91% |      190092     12.68%     75.58% |      184794     12.33%     87.91% |      181243     12.09%    100.00%
system.ruby.L2Cache_Controller.L1_PUTX::total      1499205                      
system.ruby.L2Cache_Controller.L2_Replacement |       26576     12.47%     12.47% |       26818     12.59%     25.06% |       26569     12.47%     37.53% |       26823     12.59%     50.11% |       26621     12.49%     62.61% |       26721     12.54%     75.15% |       26430     12.40%     87.55% |       26533     12.45%    100.00%
system.ruby.L2Cache_Controller.L2_Replacement::total       213091                      
system.ruby.L2Cache_Controller.L2_Replacement_clean |        2433     13.19%     13.19% |        2338     12.68%     25.87% |        2321     12.59%     38.46% |        2226     12.07%     50.53% |        2269     12.31%     62.84% |        2242     12.16%     75.00% |        2295     12.45%     87.45% |        2315     12.55%    100.00%
system.ruby.L2Cache_Controller.L2_Replacement_clean::total        18439                      
system.ruby.L2Cache_Controller.Mem_Data  |       30785     12.59%     12.59% |       30606     12.51%     25.10% |       30540     12.49%     37.59% |       30536     12.49%     50.07% |       30513     12.48%     62.55% |       30506     12.47%     75.02% |       30554     12.49%     87.52% |       30532     12.48%    100.00%
system.ruby.L2Cache_Controller.Mem_Data::total       244572                      
system.ruby.L2Cache_Controller.Mem_Ack   |       29403     12.60%     12.60% |       29370     12.59%     25.19% |       29091     12.47%     37.65% |       29250     12.53%     50.19% |       29091     12.47%     62.65% |       29164     12.50%     75.15% |       28928     12.40%     87.55% |       29055     12.45%    100.00%
system.ruby.L2Cache_Controller.Mem_Ack::total       233352                      
system.ruby.L2Cache_Controller.WB_Data   |         180    100.00%    100.00% |           0      0.00%    100.00% |           0      0.00%    100.00% |           0      0.00%    100.00% |           0      0.00%    100.00% |           0      0.00%    100.00% |           0      0.00%    100.00% |           0      0.00%    100.00%
system.ruby.L2Cache_Controller.WB_Data::total          180                      
system.ruby.L2Cache_Controller.Ack_all   |         851     12.86%     12.86% |         860     13.00%     25.86% |         823     12.44%     38.30% |         770     11.64%     49.94% |         800     12.09%     62.03% |         821     12.41%     74.44% |         839     12.68%     87.12% |         852     12.88%    100.00%
system.ruby.L2Cache_Controller.Ack_all::total         6616                      
system.ruby.L2Cache_Controller.Unblock   |      166244     14.67%     14.67% |      141101     12.45%     27.13% |      141378     12.48%     39.60% |      137948     12.17%     51.78% |      134954     11.91%     63.69% |      137213     12.11%     75.80% |      133576     11.79%     87.59% |      140649     12.41%    100.00%
system.ruby.L2Cache_Controller.Unblock::total      1133063                      
system.ruby.L2Cache_Controller.MEM_Inv   |         788     21.62%     21.62% |         428     11.75%     33.37% |         402     11.03%     44.40% |         402     11.03%     55.43% |         402     11.03%     66.47% |         402     11.03%     77.50% |         406     11.14%     88.64% |         414     11.36%    100.00%
system.ruby.L2Cache_Controller.MEM_Inv::total         3644                      
system.ruby.L2Cache_Controller.NP.L1_GET_INSTR |         382     12.33%     12.33% |         391     12.62%     24.95% |         398     12.85%     37.80% |         380     12.27%     50.06% |         369     11.91%     61.98% |         377     12.17%     74.14% |         399     12.88%     87.02% |         402     12.98%    100.00%
system.ruby.L2Cache_Controller.NP.L1_GET_INSTR::total         3098                      
system.ruby.L2Cache_Controller.NP.L1_GETS |        3644     12.94%     12.94% |        3522     12.51%     25.45% |        3484     12.37%     37.82% |        3550     12.61%     50.43% |        3483     12.37%     62.79% |        3525     12.52%     75.31% |        3529     12.53%     87.84% |        3423     12.16%    100.00%
system.ruby.L2Cache_Controller.NP.L1_GETS::total        28160                      
system.ruby.L2Cache_Controller.NP.L1_GETX |       26759     12.54%     12.54% |       26693     12.51%     25.06% |       26658     12.50%     37.55% |       26606     12.47%     50.03% |       26661     12.50%     62.53% |       26604     12.47%     75.00% |       26626     12.48%     87.48% |       26707     12.52%    100.00%
system.ruby.L2Cache_Controller.NP.L1_GETX::total       213314                      
system.ruby.L2Cache_Controller.SS.L1_GET_INSTR |       62664     13.32%     13.32% |       57694     12.27%     25.59% |       54208     11.52%     37.11% |       57952     12.32%     49.43% |       55773     11.86%     61.29% |       65265     13.88%     75.17% |       62921     13.38%     88.54% |       53894     11.46%    100.00%
system.ruby.L2Cache_Controller.SS.L1_GET_INSTR::total       470371                      
system.ruby.L2Cache_Controller.SS.L1_GETS |           0      0.00%      0.00% |           2      1.74%      1.74% |          76     66.09%     67.83% |          28     24.35%     92.17% |           1      0.87%     93.04% |           1      0.87%     93.91% |           6      5.22%     99.13% |           1      0.87%    100.00%
system.ruby.L2Cache_Controller.SS.L1_GETS::total          115                      
system.ruby.L2Cache_Controller.SS.L1_PUTX |       63046     13.31%     13.31% |       58087     12.27%     25.58% |       54685     11.55%     37.12% |       58359     12.32%     49.45% |       56144     11.85%     61.30% |       65645     13.86%     75.16% |       63328     13.37%     88.54% |       54297     11.46%    100.00%
system.ruby.L2Cache_Controller.SS.L1_PUTX::total       473591                      
system.ruby.L2Cache_Controller.SS.L2_Replacement |           0      0.00%      0.00% |           0      0.00%      0.00% |           0      0.00%      0.00% |           1     50.00%     50.00% |           0      0.00%     50.00% |           1     50.00%    100.00% |           0      0.00%    100.00% |           0      0.00%    100.00%
system.ruby.L2Cache_Controller.SS.L2_Replacement::total            2                      
system.ruby.L2Cache_Controller.SS.L2_Replacement_clean |         851     12.88%     12.88% |         860     13.02%     25.90% |         823     12.46%     38.36% |         767     11.61%     49.97% |         798     12.08%     62.05% |         818     12.38%     74.43% |         838     12.69%     87.12% |         851     12.88%    100.00%
system.ruby.L2Cache_Controller.SS.L2_Replacement_clean::total         6606                      
system.ruby.L2Cache_Controller.M.L1_GET_INSTR |           1     10.00%     10.00% |           1     10.00%     20.00% |           3     30.00%     50.00% |           0      0.00%     50.00% |           1     10.00%     60.00% |           2     20.00%     80.00% |           2     20.00%    100.00% |           0      0.00%    100.00%
system.ruby.L2Cache_Controller.M.L1_GET_INSTR::total           10                      
system.ruby.L2Cache_Controller.M.L1_GETS |       76352     16.38%     16.38% |       58446     12.54%     28.91% |       58156     12.47%     41.39% |       55499     11.90%     53.29% |       54053     11.59%     64.89% |       53368     11.45%     76.33% |       52292     11.22%     87.55% |       58045     12.45%    100.00%
system.ruby.L2Cache_Controller.M.L1_GETS::total       466211                      
system.ruby.L2Cache_Controller.M.L1_GETX |       41574     13.07%     13.07% |       39441     12.40%     25.47% |       40172     12.63%     38.09% |       39621     12.45%     50.55% |       38567     12.12%     62.67% |       40952     12.87%     75.55% |       39020     12.27%     87.81% |       38772     12.19%    100.00%
system.ruby.L2Cache_Controller.M.L1_GETX::total       318119                      
system.ruby.L2Cache_Controller.M.L2_Replacement |       26576     12.47%     12.47% |       26818     12.59%     25.06% |       26569     12.47%     37.53% |       26822     12.59%     50.11% |       26621     12.49%     62.61% |       26720     12.54%     75.15% |       26430     12.40%     87.55% |       26533     12.45%    100.00%
system.ruby.L2Cache_Controller.M.L2_Replacement::total       213089                      
system.ruby.L2Cache_Controller.M.L2_Replacement_clean |        1582     13.37%     13.37% |        1478     12.49%     25.86% |        1498     12.66%     38.52% |        1459     12.33%     50.85% |        1471     12.43%     63.28% |        1424     12.03%     75.31% |        1457     12.31%     87.63% |        1464     12.37%    100.00%
system.ruby.L2Cache_Controller.M.L2_Replacement_clean::total        11833                      
system.ruby.L2Cache_Controller.M.MEM_Inv |         214     13.10%     13.10% |         214     13.10%     26.19% |         201     12.30%     38.49% |         199     12.18%     50.67% |         199     12.18%     62.85% |         199     12.18%     75.03% |         202     12.36%     87.39% |         206     12.61%    100.00%
system.ruby.L2Cache_Controller.M.MEM_Inv::total         1634                      
system.ruby.L2Cache_Controller.MT.L1_GETX |       17915     16.70%     16.70% |       12999     12.12%     28.82% |       12908     12.03%     40.86% |       12672     11.81%     52.67% |       12190     11.37%     64.04% |       12764     11.90%     75.94% |       12109     11.29%     87.23% |       13702     12.77%    100.00%
system.ruby.L2Cache_Controller.MT.L1_GETX::total       107259                      
system.ruby.L2Cache_Controller.MT.L1_PUTX |      148149     14.44%     14.44% |      128101     12.49%     26.94% |      128469     12.53%     39.46% |      125274     12.21%     51.68% |      122762     11.97%     63.65% |      124447     12.13%     75.78% |      121466     11.84%     87.62% |      126946     12.38%    100.00%
system.ruby.L2Cache_Controller.MT.L1_PUTX::total      1025614                      
system.ruby.L2Cache_Controller.MT.MEM_Inv |         180     95.74%     95.74% |           0      0.00%     95.74% |           0      0.00%     95.74% |           2      1.06%     96.81% |           2      1.06%     97.87% |           2      1.06%     98.94% |           1      0.53%     99.47% |           1      0.53%    100.00%
system.ruby.L2Cache_Controller.MT.MEM_Inv::total          188                      
system.ruby.L2Cache_Controller.M_I.Mem_Ack |       29403     12.60%     12.60% |       29370     12.59%     25.19% |       29091     12.47%     37.65% |       29250     12.53%     50.19% |       29091     12.47%     62.65% |       29164     12.50%     75.15% |       28928     12.40%     87.55% |       29055     12.45%    100.00%
system.ruby.L2Cache_Controller.M_I.Mem_Ack::total       233352                      
system.ruby.L2Cache_Controller.M_I.MEM_Inv |         214     13.10%     13.10% |         214     13.10%     26.19% |         201     12.30%     38.49% |         199     12.18%     50.67% |         199     12.18%     62.85% |         199     12.18%     75.03% |         202     12.36%     87.39% |         206     12.61%    100.00%
system.ruby.L2Cache_Controller.M_I.MEM_Inv::total         1634                      
system.ruby.L2Cache_Controller.MT_I.WB_Data |         180    100.00%    100.00% |           0      0.00%    100.00% |           0      0.00%    100.00% |           0      0.00%    100.00% |           0      0.00%    100.00% |           0      0.00%    100.00% |           0      0.00%    100.00% |           0      0.00%    100.00%
system.ruby.L2Cache_Controller.MT_I.WB_Data::total          180                      
system.ruby.L2Cache_Controller.MT_I.Ack_all |           0      0.00%      0.00% |           0      0.00%      0.00% |           0      0.00%      0.00% |           2     25.00%     25.00% |           2     25.00%     50.00% |           2     25.00%     75.00% |           1     12.50%     87.50% |           1     12.50%    100.00%
system.ruby.L2Cache_Controller.MT_I.Ack_all::total            8                      
system.ruby.L2Cache_Controller.MT_I.MEM_Inv |         180     95.74%     95.74% |           0      0.00%     95.74% |           0      0.00%     95.74% |           2      1.06%     96.81% |           2      1.06%     97.87% |           2      1.06%     98.94% |           1      0.53%     99.47% |           1      0.53%    100.00%
system.ruby.L2Cache_Controller.MT_I.MEM_Inv::total          188                      
system.ruby.L2Cache_Controller.I_I.Ack_all |         851     12.88%     12.88% |         860     13.02%     25.90% |         823     12.46%     38.36% |         767     11.61%     49.97% |         798     12.08%     62.05% |         818     12.38%     74.43% |         838     12.69%     87.12% |         851     12.88%    100.00%
system.ruby.L2Cache_Controller.I_I.Ack_all::total         6606                      
system.ruby.L2Cache_Controller.S_I.Ack_all |           0      0.00%      0.00% |           0      0.00%      0.00% |           0      0.00%      0.00% |           1     50.00%     50.00% |           0      0.00%     50.00% |           1     50.00%    100.00% |           0      0.00%    100.00% |           0      0.00%    100.00%
system.ruby.L2Cache_Controller.S_I.Ack_all::total            2                      
system.ruby.L2Cache_Controller.ISS.Mem_Data |        3644     12.94%     12.94% |        3522     12.51%     25.45% |        3484     12.37%     37.82% |        3550     12.61%     50.43% |        3483     12.37%     62.79% |        3525     12.52%     75.31% |        3529     12.53%     87.84% |        3423     12.16%    100.00%
system.ruby.L2Cache_Controller.ISS.Mem_Data::total        28160                      
system.ruby.L2Cache_Controller.IS.Mem_Data |         382     12.33%     12.33% |         391     12.62%     24.95% |         398     12.85%     37.80% |         380     12.27%     50.06% |         369     11.91%     61.98% |         377     12.17%     74.14% |         399     12.88%     87.02% |         402     12.98%    100.00%
system.ruby.L2Cache_Controller.IS.Mem_Data::total         3098                      
system.ruby.L2Cache_Controller.IM.Mem_Data |       26759     12.54%     12.54% |       26693     12.51%     25.06% |       26658     12.50%     37.55% |       26606     12.47%     50.03% |       26661     12.50%     62.53% |       26604     12.47%     75.00% |       26626     12.48%     87.48% |       26707     12.52%    100.00%
system.ruby.L2Cache_Controller.IM.Mem_Data::total       213314                      
system.ruby.L2Cache_Controller.MT_MB.Unblock |      166244     14.67%     14.67% |      141101     12.45%     27.13% |      141378     12.48%     39.60% |      137948     12.17%     51.78% |      134954     11.91%     63.69% |      137213     12.11%     75.80% |      133576     11.79%     87.59% |      140649     12.41%    100.00%
system.ruby.L2Cache_Controller.MT_MB.Unblock::total      1133063                      

---------- End Simulation Statistics   ----------
