
---------- Begin Simulation Statistics ----------
sim_seconds                                  0.440664                       # Number of seconds simulated
sim_ticks                                440663523500                       # Number of ticks simulated
final_tick                               5810053236500                       # Number of ticks from beginning of simulation (restored from checkpoints and never reset)
sim_freq                                 1000000000000                       # Frequency of simulated ticks
host_inst_rate                                 628762                       # Simulator instruction rate (inst/s)
host_op_rate                                  1171036                       # Simulator op (including micro ops) rate (op/s)
host_tick_rate                              923574581                       # Simulator tick rate (ticks/s)
host_mem_usage                                1972492                       # Number of bytes of host memory used
host_seconds                                   477.13                       # Real time elapsed on the host
sim_insts                                   300000001                       # Number of instructions simulated
sim_ops                                     558734131                       # Number of ops (including micro ops) simulated
system.voltage_domain.voltage                       1                       # Voltage in Volts
system.clk_domain.clock                          1000                       # Clock period in ticks
system.mem_ctrls0.pwrStateResidencyTicks::UNDEFINED 5810053236500                       # Cumulative time (in ticks) in various power states
system.mem_ctrls0.bytes_read::ruby.dir_cntrl0     17342784                       # Number of bytes read from this memory
system.mem_ctrls0.bytes_read::total          17342784                       # Number of bytes read from this memory
system.mem_ctrls0.bytes_written::ruby.dir_cntrl0     17755456                       # Number of bytes written to this memory
system.mem_ctrls0.bytes_written::total       17755456                       # Number of bytes written to this memory
system.mem_ctrls0.num_reads::ruby.dir_cntrl0       270981                       # Number of read requests responded to by this memory
system.mem_ctrls0.num_reads::total             270981                       # Number of read requests responded to by this memory
system.mem_ctrls0.num_writes::ruby.dir_cntrl0       277429                       # Number of write requests responded to by this memory
system.mem_ctrls0.num_writes::total            277429                       # Number of write requests responded to by this memory
system.mem_ctrls0.bw_read::ruby.dir_cntrl0     39356069                       # Total read bandwidth from this memory (bytes/s)
system.mem_ctrls0.bw_read::total             39356069                       # Total read bandwidth from this memory (bytes/s)
system.mem_ctrls0.bw_write::ruby.dir_cntrl0     40292548                       # Write bandwidth from this memory (bytes/s)
system.mem_ctrls0.bw_write::total            40292548                       # Write bandwidth from this memory (bytes/s)
system.mem_ctrls0.bw_total::ruby.dir_cntrl0     79648617                       # Total bandwidth to/from this memory (bytes/s)
system.mem_ctrls0.bw_total::total            79648617                       # Total bandwidth to/from this memory (bytes/s)
system.mem_ctrls0.readReqs                     270981                       # Number of read requests accepted
system.mem_ctrls0.writeReqs                    277429                       # Number of write requests accepted
system.mem_ctrls0.readBursts                   270981                       # Number of DRAM read bursts, including those serviced by the write queue
system.mem_ctrls0.writeBursts                  277429                       # Number of DRAM write bursts, including those merged in the write queue
system.mem_ctrls0.bytesReadDRAM              12779264                       # Total number of bytes read from DRAM
system.mem_ctrls0.bytesReadWrQ                4563520                       # Total number of bytes read from write queue
system.mem_ctrls0.bytesWritten               15084352                       # Total number of bytes written to DRAM
system.mem_ctrls0.bytesReadSys               17342784                       # Total read bytes from the system interface side
system.mem_ctrls0.bytesWrittenSys            17755456                       # Total written bytes from the system interface side
system.mem_ctrls0.servicedByWrQ                 71305                       # Number of DRAM read bursts serviced by the write queue
system.mem_ctrls0.mergedWrBursts                41724                       # Number of DRAM write bursts merged with an existing one
system.mem_ctrls0.neitherReadNorWriteReqs            0                       # Number of requests that are neither read nor write
system.mem_ctrls0.perBankRdBursts::0            15126                       # Per bank write bursts
system.mem_ctrls0.perBankRdBursts::1            13367                       # Per bank write bursts
system.mem_ctrls0.perBankRdBursts::2            15184                       # Per bank write bursts
system.mem_ctrls0.perBankRdBursts::3            11371                       # Per bank write bursts
system.mem_ctrls0.perBankRdBursts::4            16932                       # Per bank write bursts
system.mem_ctrls0.perBankRdBursts::5            18720                       # Per bank write bursts
system.mem_ctrls0.perBankRdBursts::6            16251                       # Per bank write bursts
system.mem_ctrls0.perBankRdBursts::7            13516                       # Per bank write bursts
system.mem_ctrls0.perBankRdBursts::8             5809                       # Per bank write bursts
system.mem_ctrls0.perBankRdBursts::9             6262                       # Per bank write bursts
system.mem_ctrls0.perBankRdBursts::10            7331                       # Per bank write bursts
system.mem_ctrls0.perBankRdBursts::11            5988                       # Per bank write bursts
system.mem_ctrls0.perBankRdBursts::12            6450                       # Per bank write bursts
system.mem_ctrls0.perBankRdBursts::13           17716                       # Per bank write bursts
system.mem_ctrls0.perBankRdBursts::14           14994                       # Per bank write bursts
system.mem_ctrls0.perBankRdBursts::15           14659                       # Per bank write bursts
system.mem_ctrls0.perBankWrBursts::0            17162                       # Per bank write bursts
system.mem_ctrls0.perBankWrBursts::1            15311                       # Per bank write bursts
system.mem_ctrls0.perBankWrBursts::2            19079                       # Per bank write bursts
system.mem_ctrls0.perBankWrBursts::3            13585                       # Per bank write bursts
system.mem_ctrls0.perBankWrBursts::4            19291                       # Per bank write bursts
system.mem_ctrls0.perBankWrBursts::5            23816                       # Per bank write bursts
system.mem_ctrls0.perBankWrBursts::6            19453                       # Per bank write bursts
system.mem_ctrls0.perBankWrBursts::7            16415                       # Per bank write bursts
system.mem_ctrls0.perBankWrBursts::8             7185                       # Per bank write bursts
system.mem_ctrls0.perBankWrBursts::9             7558                       # Per bank write bursts
system.mem_ctrls0.perBankWrBursts::10            9292                       # Per bank write bursts
system.mem_ctrls0.perBankWrBursts::11            6605                       # Per bank write bursts
system.mem_ctrls0.perBankWrBursts::12            7163                       # Per bank write bursts
system.mem_ctrls0.perBankWrBursts::13           19981                       # Per bank write bursts
system.mem_ctrls0.perBankWrBursts::14           16613                       # Per bank write bursts
system.mem_ctrls0.perBankWrBursts::15           17184                       # Per bank write bursts
system.mem_ctrls0.numRdRetry                        0                       # Number of times read queue was full causing retry
system.mem_ctrls0.numWrRetry                        0                       # Number of times write queue was full causing retry
system.mem_ctrls0.totGap                 440662010500                       # Total gap between requests
system.mem_ctrls0.readPktSize::0                    0                       # Read request sizes (log2)
system.mem_ctrls0.readPktSize::1                    0                       # Read request sizes (log2)
system.mem_ctrls0.readPktSize::2                    0                       # Read request sizes (log2)
system.mem_ctrls0.readPktSize::3                    0                       # Read request sizes (log2)
system.mem_ctrls0.readPktSize::4                    0                       # Read request sizes (log2)
system.mem_ctrls0.readPktSize::5                    0                       # Read request sizes (log2)
system.mem_ctrls0.readPktSize::6               270981                       # Read request sizes (log2)
system.mem_ctrls0.writePktSize::0                   0                       # Write request sizes (log2)
system.mem_ctrls0.writePktSize::1                   0                       # Write request sizes (log2)
system.mem_ctrls0.writePktSize::2                   0                       # Write request sizes (log2)
system.mem_ctrls0.writePktSize::3                   0                       # Write request sizes (log2)
system.mem_ctrls0.writePktSize::4                   0                       # Write request sizes (log2)
system.mem_ctrls0.writePktSize::5                   0                       # Write request sizes (log2)
system.mem_ctrls0.writePktSize::6              277429                       # Write request sizes (log2)
system.mem_ctrls0.rdQLenPdf::0                 199670                       # What read queue length does an incoming req see
system.mem_ctrls0.rdQLenPdf::1                      6                       # What read queue length does an incoming req see
system.mem_ctrls0.rdQLenPdf::2                      0                       # What read queue length does an incoming req see
system.mem_ctrls0.rdQLenPdf::3                      0                       # What read queue length does an incoming req see
system.mem_ctrls0.rdQLenPdf::4                      0                       # What read queue length does an incoming req see
system.mem_ctrls0.rdQLenPdf::5                      0                       # What read queue length does an incoming req see
system.mem_ctrls0.rdQLenPdf::6                      0                       # What read queue length does an incoming req see
system.mem_ctrls0.rdQLenPdf::7                      0                       # What read queue length does an incoming req see
system.mem_ctrls0.rdQLenPdf::8                      0                       # What read queue length does an incoming req see
system.mem_ctrls0.rdQLenPdf::9                      0                       # What read queue length does an incoming req see
system.mem_ctrls0.rdQLenPdf::10                     0                       # What read queue length does an incoming req see
system.mem_ctrls0.rdQLenPdf::11                     0                       # What read queue length does an incoming req see
system.mem_ctrls0.rdQLenPdf::12                     0                       # What read queue length does an incoming req see
system.mem_ctrls0.rdQLenPdf::13                     0                       # What read queue length does an incoming req see
system.mem_ctrls0.rdQLenPdf::14                     0                       # What read queue length does an incoming req see
system.mem_ctrls0.rdQLenPdf::15                     0                       # What read queue length does an incoming req see
system.mem_ctrls0.rdQLenPdf::16                     0                       # What read queue length does an incoming req see
system.mem_ctrls0.rdQLenPdf::17                     0                       # What read queue length does an incoming req see
system.mem_ctrls0.rdQLenPdf::18                     0                       # What read queue length does an incoming req see
system.mem_ctrls0.rdQLenPdf::19                     0                       # What read queue length does an incoming req see
system.mem_ctrls0.rdQLenPdf::20                     0                       # What read queue length does an incoming req see
system.mem_ctrls0.rdQLenPdf::21                     0                       # What read queue length does an incoming req see
system.mem_ctrls0.rdQLenPdf::22                     0                       # What read queue length does an incoming req see
system.mem_ctrls0.rdQLenPdf::23                     0                       # What read queue length does an incoming req see
system.mem_ctrls0.rdQLenPdf::24                     0                       # What read queue length does an incoming req see
system.mem_ctrls0.rdQLenPdf::25                     0                       # What read queue length does an incoming req see
system.mem_ctrls0.rdQLenPdf::26                     0                       # What read queue length does an incoming req see
system.mem_ctrls0.rdQLenPdf::27                     0                       # What read queue length does an incoming req see
system.mem_ctrls0.rdQLenPdf::28                     0                       # What read queue length does an incoming req see
system.mem_ctrls0.rdQLenPdf::29                     0                       # What read queue length does an incoming req see
system.mem_ctrls0.rdQLenPdf::30                     0                       # What read queue length does an incoming req see
system.mem_ctrls0.rdQLenPdf::31                     0                       # What read queue length does an incoming req see
system.mem_ctrls0.wrQLenPdf::0                      0                       # What write queue length does an incoming req see
system.mem_ctrls0.wrQLenPdf::1                      0                       # What write queue length does an incoming req see
system.mem_ctrls0.wrQLenPdf::2                      0                       # What write queue length does an incoming req see
system.mem_ctrls0.wrQLenPdf::3                      0                       # What write queue length does an incoming req see
system.mem_ctrls0.wrQLenPdf::4                      0                       # What write queue length does an incoming req see
system.mem_ctrls0.wrQLenPdf::5                      0                       # What write queue length does an incoming req see
system.mem_ctrls0.wrQLenPdf::6                      0                       # What write queue length does an incoming req see
system.mem_ctrls0.wrQLenPdf::7                      0                       # What write queue length does an incoming req see
system.mem_ctrls0.wrQLenPdf::8                      0                       # What write queue length does an incoming req see
system.mem_ctrls0.wrQLenPdf::9                      0                       # What write queue length does an incoming req see
system.mem_ctrls0.wrQLenPdf::10                     0                       # What write queue length does an incoming req see
system.mem_ctrls0.wrQLenPdf::11                     0                       # What write queue length does an incoming req see
system.mem_ctrls0.wrQLenPdf::12                     0                       # What write queue length does an incoming req see
system.mem_ctrls0.wrQLenPdf::13                     0                       # What write queue length does an incoming req see
system.mem_ctrls0.wrQLenPdf::14                     0                       # What write queue length does an incoming req see
system.mem_ctrls0.wrQLenPdf::15                  2096                       # What write queue length does an incoming req see
system.mem_ctrls0.wrQLenPdf::16                  2253                       # What write queue length does an incoming req see
system.mem_ctrls0.wrQLenPdf::17                 14139                       # What write queue length does an incoming req see
system.mem_ctrls0.wrQLenPdf::18                 14415                       # What write queue length does an incoming req see
system.mem_ctrls0.wrQLenPdf::19                 14443                       # What write queue length does an incoming req see
system.mem_ctrls0.wrQLenPdf::20                 14474                       # What write queue length does an incoming req see
system.mem_ctrls0.wrQLenPdf::21                 14464                       # What write queue length does an incoming req see
system.mem_ctrls0.wrQLenPdf::22                 14501                       # What write queue length does an incoming req see
system.mem_ctrls0.wrQLenPdf::23                 14527                       # What write queue length does an incoming req see
system.mem_ctrls0.wrQLenPdf::24                 14546                       # What write queue length does an incoming req see
system.mem_ctrls0.wrQLenPdf::25                 14614                       # What write queue length does an incoming req see
system.mem_ctrls0.wrQLenPdf::26                 14541                       # What write queue length does an incoming req see
system.mem_ctrls0.wrQLenPdf::27                 14563                       # What write queue length does an incoming req see
system.mem_ctrls0.wrQLenPdf::28                 14477                       # What write queue length does an incoming req see
system.mem_ctrls0.wrQLenPdf::29                 14414                       # What write queue length does an incoming req see
system.mem_ctrls0.wrQLenPdf::30                 14347                       # What write queue length does an incoming req see
system.mem_ctrls0.wrQLenPdf::31                 14308                       # What write queue length does an incoming req see
system.mem_ctrls0.wrQLenPdf::32                 14299                       # What write queue length does an incoming req see
system.mem_ctrls0.wrQLenPdf::33                    70                       # What write queue length does an incoming req see
system.mem_ctrls0.wrQLenPdf::34                    31                       # What write queue length does an incoming req see
system.mem_ctrls0.wrQLenPdf::35                    21                       # What write queue length does an incoming req see
system.mem_ctrls0.wrQLenPdf::36                    15                       # What write queue length does an incoming req see
system.mem_ctrls0.wrQLenPdf::37                    13                       # What write queue length does an incoming req see
system.mem_ctrls0.wrQLenPdf::38                    12                       # What write queue length does an incoming req see
system.mem_ctrls0.wrQLenPdf::39                    12                       # What write queue length does an incoming req see
system.mem_ctrls0.wrQLenPdf::40                    12                       # What write queue length does an incoming req see
system.mem_ctrls0.wrQLenPdf::41                    11                       # What write queue length does an incoming req see
system.mem_ctrls0.wrQLenPdf::42                    14                       # What write queue length does an incoming req see
system.mem_ctrls0.wrQLenPdf::43                    12                       # What write queue length does an incoming req see
system.mem_ctrls0.wrQLenPdf::44                    13                       # What write queue length does an incoming req see
system.mem_ctrls0.wrQLenPdf::45                    11                       # What write queue length does an incoming req see
system.mem_ctrls0.wrQLenPdf::46                     7                       # What write queue length does an incoming req see
system.mem_ctrls0.wrQLenPdf::47                     9                       # What write queue length does an incoming req see
system.mem_ctrls0.wrQLenPdf::48                     6                       # What write queue length does an incoming req see
system.mem_ctrls0.wrQLenPdf::49                     5                       # What write queue length does an incoming req see
system.mem_ctrls0.wrQLenPdf::50                     5                       # What write queue length does an incoming req see
system.mem_ctrls0.wrQLenPdf::51                     4                       # What write queue length does an incoming req see
system.mem_ctrls0.wrQLenPdf::52                     1                       # What write queue length does an incoming req see
system.mem_ctrls0.wrQLenPdf::53                     0                       # What write queue length does an incoming req see
system.mem_ctrls0.wrQLenPdf::54                     0                       # What write queue length does an incoming req see
system.mem_ctrls0.wrQLenPdf::55                     0                       # What write queue length does an incoming req see
system.mem_ctrls0.wrQLenPdf::56                     0                       # What write queue length does an incoming req see
system.mem_ctrls0.wrQLenPdf::57                     0                       # What write queue length does an incoming req see
system.mem_ctrls0.wrQLenPdf::58                     0                       # What write queue length does an incoming req see
system.mem_ctrls0.wrQLenPdf::59                     0                       # What write queue length does an incoming req see
system.mem_ctrls0.wrQLenPdf::60                     0                       # What write queue length does an incoming req see
system.mem_ctrls0.wrQLenPdf::61                     0                       # What write queue length does an incoming req see
system.mem_ctrls0.wrQLenPdf::62                     0                       # What write queue length does an incoming req see
system.mem_ctrls0.wrQLenPdf::63                     0                       # What write queue length does an incoming req see
system.mem_ctrls0.bytesPerActivate::samples       217282                       # Bytes accessed per row activation
system.mem_ctrls0.bytesPerActivate::mean   128.240351                       # Bytes accessed per row activation
system.mem_ctrls0.bytesPerActivate::gmean    99.866197                       # Bytes accessed per row activation
system.mem_ctrls0.bytesPerActivate::stdev   121.071805                       # Bytes accessed per row activation
system.mem_ctrls0.bytesPerActivate::0-127       131001     60.29%     60.29% # Bytes accessed per row activation
system.mem_ctrls0.bytesPerActivate::128-255        57133     26.29%     86.59% # Bytes accessed per row activation
system.mem_ctrls0.bytesPerActivate::256-383        17283      7.95%     94.54% # Bytes accessed per row activation
system.mem_ctrls0.bytesPerActivate::384-511         6676      3.07%     97.61% # Bytes accessed per row activation
system.mem_ctrls0.bytesPerActivate::512-639         2738      1.26%     98.87% # Bytes accessed per row activation
system.mem_ctrls0.bytesPerActivate::640-767         1024      0.47%     99.34% # Bytes accessed per row activation
system.mem_ctrls0.bytesPerActivate::768-895          614      0.28%     99.63% # Bytes accessed per row activation
system.mem_ctrls0.bytesPerActivate::896-1023          341      0.16%     99.78% # Bytes accessed per row activation
system.mem_ctrls0.bytesPerActivate::1024-1151          472      0.22%    100.00% # Bytes accessed per row activation
system.mem_ctrls0.bytesPerActivate::total       217282                       # Bytes accessed per row activation
system.mem_ctrls0.rdPerTurnAround::samples        14279                       # Reads before turning the bus around for writes
system.mem_ctrls0.rdPerTurnAround::mean     13.983192                       # Reads before turning the bus around for writes
system.mem_ctrls0.rdPerTurnAround::stdev     2.472513                       # Reads before turning the bus around for writes
system.mem_ctrls0.rdPerTurnAround::0               55      0.39%      0.39% # Reads before turning the bus around for writes
system.mem_ctrls0.rdPerTurnAround::1               53      0.37%      0.76% # Reads before turning the bus around for writes
system.mem_ctrls0.rdPerTurnAround::2               29      0.20%      0.96% # Reads before turning the bus around for writes
system.mem_ctrls0.rdPerTurnAround::3               31      0.22%      1.18% # Reads before turning the bus around for writes
system.mem_ctrls0.rdPerTurnAround::4               20      0.14%      1.32% # Reads before turning the bus around for writes
system.mem_ctrls0.rdPerTurnAround::5               15      0.11%      1.42% # Reads before turning the bus around for writes
system.mem_ctrls0.rdPerTurnAround::6               22      0.15%      1.58% # Reads before turning the bus around for writes
system.mem_ctrls0.rdPerTurnAround::7               56      0.39%      1.97% # Reads before turning the bus around for writes
system.mem_ctrls0.rdPerTurnAround::8              107      0.75%      2.72% # Reads before turning the bus around for writes
system.mem_ctrls0.rdPerTurnAround::9              190      1.33%      4.05% # Reads before turning the bus around for writes
system.mem_ctrls0.rdPerTurnAround::10             413      2.89%      6.94% # Reads before turning the bus around for writes
system.mem_ctrls0.rdPerTurnAround::11             669      4.69%     11.63% # Reads before turning the bus around for writes
system.mem_ctrls0.rdPerTurnAround::12            1185      8.30%     19.92% # Reads before turning the bus around for writes
system.mem_ctrls0.rdPerTurnAround::13            1746     12.23%     32.15% # Reads before turning the bus around for writes
system.mem_ctrls0.rdPerTurnAround::14            2535     17.75%     49.91% # Reads before turning the bus around for writes
system.mem_ctrls0.rdPerTurnAround::15            3065     21.47%     71.37% # Reads before turning the bus around for writes
system.mem_ctrls0.rdPerTurnAround::16            3318     23.24%     94.61% # Reads before turning the bus around for writes
system.mem_ctrls0.rdPerTurnAround::17             635      4.45%     99.05% # Reads before turning the bus around for writes
system.mem_ctrls0.rdPerTurnAround::18             115      0.81%     99.86% # Reads before turning the bus around for writes
system.mem_ctrls0.rdPerTurnAround::19              13      0.09%     99.95% # Reads before turning the bus around for writes
system.mem_ctrls0.rdPerTurnAround::20               5      0.04%     99.99% # Reads before turning the bus around for writes
system.mem_ctrls0.rdPerTurnAround::22               1      0.01%     99.99% # Reads before turning the bus around for writes
system.mem_ctrls0.rdPerTurnAround::23               1      0.01%    100.00% # Reads before turning the bus around for writes
system.mem_ctrls0.rdPerTurnAround::total        14279                       # Reads before turning the bus around for writes
system.mem_ctrls0.wrPerTurnAround::samples        14279                       # Writes before turning the bus around for reads
system.mem_ctrls0.wrPerTurnAround::mean     16.506268                       # Writes before turning the bus around for reads
system.mem_ctrls0.wrPerTurnAround::gmean    16.416507                       # Writes before turning the bus around for reads
system.mem_ctrls0.wrPerTurnAround::stdev     2.298729                       # Writes before turning the bus around for reads
system.mem_ctrls0.wrPerTurnAround::16-17        12123     84.90%     84.90% # Writes before turning the bus around for reads
system.mem_ctrls0.wrPerTurnAround::18-19         1970     13.80%     98.70% # Writes before turning the bus around for reads
system.mem_ctrls0.wrPerTurnAround::20-21           16      0.11%     98.81% # Writes before turning the bus around for reads
system.mem_ctrls0.wrPerTurnAround::22-23            7      0.05%     98.86% # Writes before turning the bus around for reads
system.mem_ctrls0.wrPerTurnAround::24-25           18      0.13%     98.98% # Writes before turning the bus around for reads
system.mem_ctrls0.wrPerTurnAround::26-27           11      0.08%     99.06% # Writes before turning the bus around for reads
system.mem_ctrls0.wrPerTurnAround::28-29           27      0.19%     99.25% # Writes before turning the bus around for reads
system.mem_ctrls0.wrPerTurnAround::30-31           19      0.13%     99.38% # Writes before turning the bus around for reads
system.mem_ctrls0.wrPerTurnAround::32-33           25      0.18%     99.56% # Writes before turning the bus around for reads
system.mem_ctrls0.wrPerTurnAround::34-35            7      0.05%     99.61% # Writes before turning the bus around for reads
system.mem_ctrls0.wrPerTurnAround::36-37           13      0.09%     99.70% # Writes before turning the bus around for reads
system.mem_ctrls0.wrPerTurnAround::38-39            4      0.03%     99.73% # Writes before turning the bus around for reads
system.mem_ctrls0.wrPerTurnAround::40-41           12      0.08%     99.81% # Writes before turning the bus around for reads
system.mem_ctrls0.wrPerTurnAround::42-43            2      0.01%     99.82% # Writes before turning the bus around for reads
system.mem_ctrls0.wrPerTurnAround::44-45            1      0.01%     99.83% # Writes before turning the bus around for reads
system.mem_ctrls0.wrPerTurnAround::48-49           12      0.08%     99.92% # Writes before turning the bus around for reads
system.mem_ctrls0.wrPerTurnAround::52-53            3      0.02%     99.94% # Writes before turning the bus around for reads
system.mem_ctrls0.wrPerTurnAround::54-55            3      0.02%     99.96% # Writes before turning the bus around for reads
system.mem_ctrls0.wrPerTurnAround::56-57            3      0.02%     99.98% # Writes before turning the bus around for reads
system.mem_ctrls0.wrPerTurnAround::60-61            1      0.01%     99.99% # Writes before turning the bus around for reads
system.mem_ctrls0.wrPerTurnAround::66-67            1      0.01%     99.99% # Writes before turning the bus around for reads
system.mem_ctrls0.wrPerTurnAround::70-71            1      0.01%    100.00% # Writes before turning the bus around for reads
system.mem_ctrls0.wrPerTurnAround::total        14279                       # Writes before turning the bus around for reads
system.mem_ctrls0.totQLat                 10431171000                       # Total ticks spent queuing
system.mem_ctrls0.totMemAccLat            14175096000                       # Total ticks spent from burst creation until serviced by the DRAM
system.mem_ctrls0.totBusLat                 998380000                       # Total ticks spent in databus transfers
system.mem_ctrls0.avgQLat                    52240.48                       # Average queueing delay per DRAM burst
system.mem_ctrls0.avgBusLat                   5000.00                       # Average bus latency per DRAM burst
system.mem_ctrls0.avgMemAccLat               70990.48                       # Average memory access latency per DRAM burst
system.mem_ctrls0.avgRdBW                       29.00                       # Average DRAM read bandwidth in MiByte/s
system.mem_ctrls0.avgWrBW                       34.23                       # Average achieved write bandwidth in MiByte/s
system.mem_ctrls0.avgRdBWSys                    39.36                       # Average system read bandwidth in MiByte/s
system.mem_ctrls0.avgWrBWSys                    40.29                       # Average system write bandwidth in MiByte/s
system.mem_ctrls0.peakBW                     12800.00                       # Theoretical peak bandwidth in MiByte/s
system.mem_ctrls0.busUtil                        0.49                       # Data bus utilization in percentage
system.mem_ctrls0.busUtilRead                    0.23                       # Data bus utilization in percentage for reads
system.mem_ctrls0.busUtilWrite                   0.27                       # Data bus utilization in percentage for writes
system.mem_ctrls0.avgRdQLen                      1.00                       # Average read queue length when enqueuing
system.mem_ctrls0.avgWrQLen                     25.40                       # Average write queue length when enqueuing
system.mem_ctrls0.readRowHits                   86028                       # Number of row buffer hits during reads
system.mem_ctrls0.writeRowHits                 132066                       # Number of row buffer hits during writes
system.mem_ctrls0.readRowHitRate                43.08                       # Row buffer hit rate for reads
system.mem_ctrls0.writeRowHitRate               56.03                       # Row buffer hit rate for writes
system.mem_ctrls0.avgGap                    803526.58                       # Average gap between requests
system.mem_ctrls0.pageHitRate                   50.09                       # Row buffer hit rate, read and write combined
system.mem_ctrls0_0.actEnergy              2301900300                       # Energy for activate commands per rank (pJ)
system.mem_ctrls0_0.preEnergy              1223485230                       # Energy for precharge commands per rank (pJ)
system.mem_ctrls0_0.readEnergy             2313588480                       # Energy for read commands per rank (pJ)
system.mem_ctrls0_0.writeEnergy            1916815320                       # Energy for write commands per rank (pJ)
system.mem_ctrls0_0.refreshEnergy        48713293200.000008                       # Energy for refresh commands per rank (pJ)
system.mem_ctrls0_0.actBackEnergy         29188508130                       # Energy for active background per rank (pJ)
system.mem_ctrls0_0.preBackEnergy          1944447360                       # Energy for precharge background per rank (pJ)
system.mem_ctrls0_0.actPowerDownEnergy   157680026820                       # Energy for active power-down per rank (pJ)
system.mem_ctrls0_0.prePowerDownEnergy    53311421280                       # Energy for precharge power-down per rank (pJ)
system.mem_ctrls0_0.selfRefreshEnergy    1266359117565                       # Energy for self refresh per rank (pJ)
system.mem_ctrls0_0.totalEnergy          1564966999815                       # Total energy per rank (pJ)
system.mem_ctrls0_0.averagePower           269.355019                       # Core power per rank (mW)
system.mem_ctrls0_0.totalIdleTime        407667175750                       # Total Idle time Per DRAM Rank
system.mem_ctrls0_0.memoryStateTime::IDLE   2006997000                       # Time in different power states
system.mem_ctrls0_0.memoryStateTime::REF  10457270000                       # Time in different power states
system.mem_ctrls0_0.memoryStateTime::SREF 171334408750                       # Time in different power states
system.mem_ctrls0_0.memoryStateTime::PRE_PDN  79582763500                       # Time in different power states
system.mem_ctrls0_0.memoryStateTime::ACT  20531105500                       # Time in different power states
system.mem_ctrls0_0.memoryStateTime::ACT_PDN 156751805000                       # Time in different power states
system.mem_ctrls0_1.actEnergy              1516671660                       # Energy for activate commands per rank (pJ)
system.mem_ctrls0_1.preEnergy               806130105                       # Energy for precharge commands per rank (pJ)
system.mem_ctrls0_1.readEnergy             1520748600                       # Energy for read commands per rank (pJ)
system.mem_ctrls0_1.writeEnergy            1235647080                       # Energy for write commands per rank (pJ)
system.mem_ctrls0_1.refreshEnergy        49289825520.000008                       # Energy for refresh commands per rank (pJ)
system.mem_ctrls0_1.actBackEnergy         32004656970                       # Energy for active background per rank (pJ)
system.mem_ctrls0_1.preBackEnergy          2216259840                       # Energy for precharge background per rank (pJ)
system.mem_ctrls0_1.actPowerDownEnergy   133695296070                       # Energy for active power-down per rank (pJ)
system.mem_ctrls0_1.prePowerDownEnergy    66973932960                       # Energy for precharge power-down per rank (pJ)
system.mem_ctrls0_1.selfRefreshEnergy    1270122327585                       # Energy for self refresh per rank (pJ)
system.mem_ctrls0_1.totalEnergy          1559405561610                       # Total energy per rank (pJ)
system.mem_ctrls0_1.averagePower           268.397809                       # Core power per rank (mW)
system.mem_ctrls0_1.totalIdleTime        407276876250                       # Total Idle time Per DRAM Rank
system.mem_ctrls0_1.memoryStateTime::IDLE   2213013750                       # Time in different power states
system.mem_ctrls0_1.memoryStateTime::REF  10506406000                       # Time in different power states
system.mem_ctrls0_1.memoryStateTime::SREF 179006315250                       # Time in different power states
system.mem_ctrls0_1.memoryStateTime::PRE_PDN  92561092250                       # Time in different power states
system.mem_ctrls0_1.memoryStateTime::ACT  20670393500                       # Time in different power states
system.mem_ctrls0_1.memoryStateTime::ACT_PDN 135709751750                       # Time in different power states
system.mem_ctrls1.pwrStateResidencyTicks::UNDEFINED 5810053236500                       # Cumulative time (in ticks) in various power states
system.mem_ctrls1.bytes_read::ruby.dir_cntrl1     14042496                       # Number of bytes read from this memory
system.mem_ctrls1.bytes_read::total          14042496                       # Number of bytes read from this memory
system.mem_ctrls1.bytes_written::ruby.dir_cntrl1     14460800                       # Number of bytes written to this memory
system.mem_ctrls1.bytes_written::total       14460800                       # Number of bytes written to this memory
system.mem_ctrls1.num_reads::ruby.dir_cntrl1       219414                       # Number of read requests responded to by this memory
system.mem_ctrls1.num_reads::total             219414                       # Number of read requests responded to by this memory
system.mem_ctrls1.num_writes::ruby.dir_cntrl1       225950                       # Number of write requests responded to by this memory
system.mem_ctrls1.num_writes::total            225950                       # Number of write requests responded to by this memory
system.mem_ctrls1.bw_read::ruby.dir_cntrl1     31866708                       # Total read bandwidth from this memory (bytes/s)
system.mem_ctrls1.bw_read::total             31866708                       # Total read bandwidth from this memory (bytes/s)
system.mem_ctrls1.bw_write::ruby.dir_cntrl1     32815968                       # Write bandwidth from this memory (bytes/s)
system.mem_ctrls1.bw_write::total            32815968                       # Write bandwidth from this memory (bytes/s)
system.mem_ctrls1.bw_total::ruby.dir_cntrl1     64682676                       # Total bandwidth to/from this memory (bytes/s)
system.mem_ctrls1.bw_total::total            64682676                       # Total bandwidth to/from this memory (bytes/s)
system.mem_ctrls1.readReqs                     219414                       # Number of read requests accepted
system.mem_ctrls1.writeReqs                    225950                       # Number of write requests accepted
system.mem_ctrls1.readBursts                   219414                       # Number of DRAM read bursts, including those serviced by the write queue
system.mem_ctrls1.writeBursts                  225950                       # Number of DRAM write bursts, including those merged in the write queue
system.mem_ctrls1.bytesReadDRAM              11590976                       # Total number of bytes read from DRAM
system.mem_ctrls1.bytesReadWrQ                2451520                       # Total number of bytes read from write queue
system.mem_ctrls1.bytesWritten               13354816                       # Total number of bytes written to DRAM
system.mem_ctrls1.bytesReadSys               14042496                       # Total read bytes from the system interface side
system.mem_ctrls1.bytesWrittenSys            14460800                       # Total written bytes from the system interface side
system.mem_ctrls1.servicedByWrQ                 38305                       # Number of DRAM read bursts serviced by the write queue
system.mem_ctrls1.mergedWrBursts                17271                       # Number of DRAM write bursts merged with an existing one
system.mem_ctrls1.neitherReadNorWriteReqs            0                       # Number of requests that are neither read nor write
system.mem_ctrls1.perBankRdBursts::0            12563                       # Per bank write bursts
system.mem_ctrls1.perBankRdBursts::1            12266                       # Per bank write bursts
system.mem_ctrls1.perBankRdBursts::2            12945                       # Per bank write bursts
system.mem_ctrls1.perBankRdBursts::3            10925                       # Per bank write bursts
system.mem_ctrls1.perBankRdBursts::4            15342                       # Per bank write bursts
system.mem_ctrls1.perBankRdBursts::5            16565                       # Per bank write bursts
system.mem_ctrls1.perBankRdBursts::6            14483                       # Per bank write bursts
system.mem_ctrls1.perBankRdBursts::7            12109                       # Per bank write bursts
system.mem_ctrls1.perBankRdBursts::8             4423                       # Per bank write bursts
system.mem_ctrls1.perBankRdBursts::9             6295                       # Per bank write bursts
system.mem_ctrls1.perBankRdBursts::10            6707                       # Per bank write bursts
system.mem_ctrls1.perBankRdBursts::11            5926                       # Per bank write bursts
system.mem_ctrls1.perBankRdBursts::12            6051                       # Per bank write bursts
system.mem_ctrls1.perBankRdBursts::13           17427                       # Per bank write bursts
system.mem_ctrls1.perBankRdBursts::14           14474                       # Per bank write bursts
system.mem_ctrls1.perBankRdBursts::15           12608                       # Per bank write bursts
system.mem_ctrls1.perBankWrBursts::0            13838                       # Per bank write bursts
system.mem_ctrls1.perBankWrBursts::1            13831                       # Per bank write bursts
system.mem_ctrls1.perBankWrBursts::2            15517                       # Per bank write bursts
system.mem_ctrls1.perBankWrBursts::3            12721                       # Per bank write bursts
system.mem_ctrls1.perBankWrBursts::4            17162                       # Per bank write bursts
system.mem_ctrls1.perBankWrBursts::5            20356                       # Per bank write bursts
system.mem_ctrls1.perBankWrBursts::6            16799                       # Per bank write bursts
system.mem_ctrls1.perBankWrBursts::7            13565                       # Per bank write bursts
system.mem_ctrls1.perBankWrBursts::8             5023                       # Per bank write bursts
system.mem_ctrls1.perBankWrBursts::9             7304                       # Per bank write bursts
system.mem_ctrls1.perBankWrBursts::10            9315                       # Per bank write bursts
system.mem_ctrls1.perBankWrBursts::11            6722                       # Per bank write bursts
system.mem_ctrls1.perBankWrBursts::12            6654                       # Per bank write bursts
system.mem_ctrls1.perBankWrBursts::13           20029                       # Per bank write bursts
system.mem_ctrls1.perBankWrBursts::14           15654                       # Per bank write bursts
system.mem_ctrls1.perBankWrBursts::15           14179                       # Per bank write bursts
system.mem_ctrls1.numRdRetry                        0                       # Number of times read queue was full causing retry
system.mem_ctrls1.numWrRetry                        5                       # Number of times write queue was full causing retry
system.mem_ctrls1.totGap                 440657120000                       # Total gap between requests
system.mem_ctrls1.readPktSize::0                    0                       # Read request sizes (log2)
system.mem_ctrls1.readPktSize::1                    0                       # Read request sizes (log2)
system.mem_ctrls1.readPktSize::2                    0                       # Read request sizes (log2)
system.mem_ctrls1.readPktSize::3                    0                       # Read request sizes (log2)
system.mem_ctrls1.readPktSize::4                    0                       # Read request sizes (log2)
system.mem_ctrls1.readPktSize::5                    0                       # Read request sizes (log2)
system.mem_ctrls1.readPktSize::6               219414                       # Read request sizes (log2)
system.mem_ctrls1.writePktSize::0                   0                       # Write request sizes (log2)
system.mem_ctrls1.writePktSize::1                   0                       # Write request sizes (log2)
system.mem_ctrls1.writePktSize::2                   0                       # Write request sizes (log2)
system.mem_ctrls1.writePktSize::3                   0                       # Write request sizes (log2)
system.mem_ctrls1.writePktSize::4                   0                       # Write request sizes (log2)
system.mem_ctrls1.writePktSize::5                   0                       # Write request sizes (log2)
system.mem_ctrls1.writePktSize::6              225950                       # Write request sizes (log2)
system.mem_ctrls1.rdQLenPdf::0                 181109                       # What read queue length does an incoming req see
system.mem_ctrls1.rdQLenPdf::1                      0                       # What read queue length does an incoming req see
system.mem_ctrls1.rdQLenPdf::2                      0                       # What read queue length does an incoming req see
system.mem_ctrls1.rdQLenPdf::3                      0                       # What read queue length does an incoming req see
system.mem_ctrls1.rdQLenPdf::4                      0                       # What read queue length does an incoming req see
system.mem_ctrls1.rdQLenPdf::5                      0                       # What read queue length does an incoming req see
system.mem_ctrls1.rdQLenPdf::6                      0                       # What read queue length does an incoming req see
system.mem_ctrls1.rdQLenPdf::7                      0                       # What read queue length does an incoming req see
system.mem_ctrls1.rdQLenPdf::8                      0                       # What read queue length does an incoming req see
system.mem_ctrls1.rdQLenPdf::9                      0                       # What read queue length does an incoming req see
system.mem_ctrls1.rdQLenPdf::10                     0                       # What read queue length does an incoming req see
system.mem_ctrls1.rdQLenPdf::11                     0                       # What read queue length does an incoming req see
system.mem_ctrls1.rdQLenPdf::12                     0                       # What read queue length does an incoming req see
system.mem_ctrls1.rdQLenPdf::13                     0                       # What read queue length does an incoming req see
system.mem_ctrls1.rdQLenPdf::14                     0                       # What read queue length does an incoming req see
system.mem_ctrls1.rdQLenPdf::15                     0                       # What read queue length does an incoming req see
system.mem_ctrls1.rdQLenPdf::16                     0                       # What read queue length does an incoming req see
system.mem_ctrls1.rdQLenPdf::17                     0                       # What read queue length does an incoming req see
system.mem_ctrls1.rdQLenPdf::18                     0                       # What read queue length does an incoming req see
system.mem_ctrls1.rdQLenPdf::19                     0                       # What read queue length does an incoming req see
system.mem_ctrls1.rdQLenPdf::20                     0                       # What read queue length does an incoming req see
system.mem_ctrls1.rdQLenPdf::21                     0                       # What read queue length does an incoming req see
system.mem_ctrls1.rdQLenPdf::22                     0                       # What read queue length does an incoming req see
system.mem_ctrls1.rdQLenPdf::23                     0                       # What read queue length does an incoming req see
system.mem_ctrls1.rdQLenPdf::24                     0                       # What read queue length does an incoming req see
system.mem_ctrls1.rdQLenPdf::25                     0                       # What read queue length does an incoming req see
system.mem_ctrls1.rdQLenPdf::26                     0                       # What read queue length does an incoming req see
system.mem_ctrls1.rdQLenPdf::27                     0                       # What read queue length does an incoming req see
system.mem_ctrls1.rdQLenPdf::28                     0                       # What read queue length does an incoming req see
system.mem_ctrls1.rdQLenPdf::29                     0                       # What read queue length does an incoming req see
system.mem_ctrls1.rdQLenPdf::30                     0                       # What read queue length does an incoming req see
system.mem_ctrls1.rdQLenPdf::31                     0                       # What read queue length does an incoming req see
system.mem_ctrls1.wrQLenPdf::0                      0                       # What write queue length does an incoming req see
system.mem_ctrls1.wrQLenPdf::1                      0                       # What write queue length does an incoming req see
system.mem_ctrls1.wrQLenPdf::2                      0                       # What write queue length does an incoming req see
system.mem_ctrls1.wrQLenPdf::3                      0                       # What write queue length does an incoming req see
system.mem_ctrls1.wrQLenPdf::4                      0                       # What write queue length does an incoming req see
system.mem_ctrls1.wrQLenPdf::5                      0                       # What write queue length does an incoming req see
system.mem_ctrls1.wrQLenPdf::6                      0                       # What write queue length does an incoming req see
system.mem_ctrls1.wrQLenPdf::7                      0                       # What write queue length does an incoming req see
system.mem_ctrls1.wrQLenPdf::8                      0                       # What write queue length does an incoming req see
system.mem_ctrls1.wrQLenPdf::9                      0                       # What write queue length does an incoming req see
system.mem_ctrls1.wrQLenPdf::10                     0                       # What write queue length does an incoming req see
system.mem_ctrls1.wrQLenPdf::11                     0                       # What write queue length does an incoming req see
system.mem_ctrls1.wrQLenPdf::12                     0                       # What write queue length does an incoming req see
system.mem_ctrls1.wrQLenPdf::13                     0                       # What write queue length does an incoming req see
system.mem_ctrls1.wrQLenPdf::14                     0                       # What write queue length does an incoming req see
system.mem_ctrls1.wrQLenPdf::15                  1695                       # What write queue length does an incoming req see
system.mem_ctrls1.wrQLenPdf::16                  1828                       # What write queue length does an incoming req see
system.mem_ctrls1.wrQLenPdf::17                 12630                       # What write queue length does an incoming req see
system.mem_ctrls1.wrQLenPdf::18                 12793                       # What write queue length does an incoming req see
system.mem_ctrls1.wrQLenPdf::19                 12828                       # What write queue length does an incoming req see
system.mem_ctrls1.wrQLenPdf::20                 12847                       # What write queue length does an incoming req see
system.mem_ctrls1.wrQLenPdf::21                 12875                       # What write queue length does an incoming req see
system.mem_ctrls1.wrQLenPdf::22                 12857                       # What write queue length does an incoming req see
system.mem_ctrls1.wrQLenPdf::23                 12860                       # What write queue length does an incoming req see
system.mem_ctrls1.wrQLenPdf::24                 12895                       # What write queue length does an incoming req see
system.mem_ctrls1.wrQLenPdf::25                 12943                       # What write queue length does an incoming req see
system.mem_ctrls1.wrQLenPdf::26                 12864                       # What write queue length does an incoming req see
system.mem_ctrls1.wrQLenPdf::27                 12850                       # What write queue length does an incoming req see
system.mem_ctrls1.wrQLenPdf::28                 12799                       # What write queue length does an incoming req see
system.mem_ctrls1.wrQLenPdf::29                 12746                       # What write queue length does an incoming req see
system.mem_ctrls1.wrQLenPdf::30                 12699                       # What write queue length does an incoming req see
system.mem_ctrls1.wrQLenPdf::31                 12662                       # What write queue length does an incoming req see
system.mem_ctrls1.wrQLenPdf::32                 12659                       # What write queue length does an incoming req see
system.mem_ctrls1.wrQLenPdf::33                    55                       # What write queue length does an incoming req see
system.mem_ctrls1.wrQLenPdf::34                    22                       # What write queue length does an incoming req see
system.mem_ctrls1.wrQLenPdf::35                    21                       # What write queue length does an incoming req see
system.mem_ctrls1.wrQLenPdf::36                    20                       # What write queue length does an incoming req see
system.mem_ctrls1.wrQLenPdf::37                    18                       # What write queue length does an incoming req see
system.mem_ctrls1.wrQLenPdf::38                    21                       # What write queue length does an incoming req see
system.mem_ctrls1.wrQLenPdf::39                    17                       # What write queue length does an incoming req see
system.mem_ctrls1.wrQLenPdf::40                    16                       # What write queue length does an incoming req see
system.mem_ctrls1.wrQLenPdf::41                    16                       # What write queue length does an incoming req see
system.mem_ctrls1.wrQLenPdf::42                    13                       # What write queue length does an incoming req see
system.mem_ctrls1.wrQLenPdf::43                    12                       # What write queue length does an incoming req see
system.mem_ctrls1.wrQLenPdf::44                    12                       # What write queue length does an incoming req see
system.mem_ctrls1.wrQLenPdf::45                    10                       # What write queue length does an incoming req see
system.mem_ctrls1.wrQLenPdf::46                     7                       # What write queue length does an incoming req see
system.mem_ctrls1.wrQLenPdf::47                     6                       # What write queue length does an incoming req see
system.mem_ctrls1.wrQLenPdf::48                     6                       # What write queue length does an incoming req see
system.mem_ctrls1.wrQLenPdf::49                     5                       # What write queue length does an incoming req see
system.mem_ctrls1.wrQLenPdf::50                     4                       # What write queue length does an incoming req see
system.mem_ctrls1.wrQLenPdf::51                     3                       # What write queue length does an incoming req see
system.mem_ctrls1.wrQLenPdf::52                     3                       # What write queue length does an incoming req see
system.mem_ctrls1.wrQLenPdf::53                     4                       # What write queue length does an incoming req see
system.mem_ctrls1.wrQLenPdf::54                     3                       # What write queue length does an incoming req see
system.mem_ctrls1.wrQLenPdf::55                     4                       # What write queue length does an incoming req see
system.mem_ctrls1.wrQLenPdf::56                     6                       # What write queue length does an incoming req see
system.mem_ctrls1.wrQLenPdf::57                     5                       # What write queue length does an incoming req see
system.mem_ctrls1.wrQLenPdf::58                     5                       # What write queue length does an incoming req see
system.mem_ctrls1.wrQLenPdf::59                     7                       # What write queue length does an incoming req see
system.mem_ctrls1.wrQLenPdf::60                     7                       # What write queue length does an incoming req see
system.mem_ctrls1.wrQLenPdf::61                     6                       # What write queue length does an incoming req see
system.mem_ctrls1.wrQLenPdf::62                     5                       # What write queue length does an incoming req see
system.mem_ctrls1.wrQLenPdf::63                    10                       # What write queue length does an incoming req see
system.mem_ctrls1.bytesPerActivate::samples       188547                       # Bytes accessed per row activation
system.mem_ctrls1.bytesPerActivate::mean   132.310522                       # Bytes accessed per row activation
system.mem_ctrls1.bytesPerActivate::gmean   101.412498                       # Bytes accessed per row activation
system.mem_ctrls1.bytesPerActivate::stdev   129.147904                       # Bytes accessed per row activation
system.mem_ctrls1.bytesPerActivate::0-127       112880     59.87%     59.87% # Bytes accessed per row activation
system.mem_ctrls1.bytesPerActivate::128-255        48623     25.79%     85.66% # Bytes accessed per row activation
system.mem_ctrls1.bytesPerActivate::256-383        15424      8.18%     93.84% # Bytes accessed per row activation
system.mem_ctrls1.bytesPerActivate::384-511         6320      3.35%     97.19% # Bytes accessed per row activation
system.mem_ctrls1.bytesPerActivate::512-639         2679      1.42%     98.61% # Bytes accessed per row activation
system.mem_ctrls1.bytesPerActivate::640-767         1005      0.53%     99.14% # Bytes accessed per row activation
system.mem_ctrls1.bytesPerActivate::768-895          654      0.35%     99.49% # Bytes accessed per row activation
system.mem_ctrls1.bytesPerActivate::896-1023          413      0.22%     99.71% # Bytes accessed per row activation
system.mem_ctrls1.bytesPerActivate::1024-1151          549      0.29%    100.00% # Bytes accessed per row activation
system.mem_ctrls1.bytesPerActivate::total       188547                       # Bytes accessed per row activation
system.mem_ctrls1.rdPerTurnAround::samples        12645                       # Reads before turning the bus around for writes
system.mem_ctrls1.rdPerTurnAround::mean     14.321866                       # Reads before turning the bus around for writes
system.mem_ctrls1.rdPerTurnAround::stdev     2.490634                       # Reads before turning the bus around for writes
system.mem_ctrls1.rdPerTurnAround::0               63      0.50%      0.50% # Reads before turning the bus around for writes
system.mem_ctrls1.rdPerTurnAround::1               71      0.56%      1.06% # Reads before turning the bus around for writes
system.mem_ctrls1.rdPerTurnAround::2               26      0.21%      1.27% # Reads before turning the bus around for writes
system.mem_ctrls1.rdPerTurnAround::3               16      0.13%      1.39% # Reads before turning the bus around for writes
system.mem_ctrls1.rdPerTurnAround::4               10      0.08%      1.47% # Reads before turning the bus around for writes
system.mem_ctrls1.rdPerTurnAround::5               13      0.10%      1.57% # Reads before turning the bus around for writes
system.mem_ctrls1.rdPerTurnAround::6               23      0.18%      1.76% # Reads before turning the bus around for writes
system.mem_ctrls1.rdPerTurnAround::7               52      0.41%      2.17% # Reads before turning the bus around for writes
system.mem_ctrls1.rdPerTurnAround::8               82      0.65%      2.82% # Reads before turning the bus around for writes
system.mem_ctrls1.rdPerTurnAround::9              150      1.19%      4.00% # Reads before turning the bus around for writes
system.mem_ctrls1.rdPerTurnAround::10             213      1.68%      5.69% # Reads before turning the bus around for writes
system.mem_ctrls1.rdPerTurnAround::11             366      2.89%      8.58% # Reads before turning the bus around for writes
system.mem_ctrls1.rdPerTurnAround::12             728      5.76%     14.34% # Reads before turning the bus around for writes
system.mem_ctrls1.rdPerTurnAround::13            1215      9.61%     23.95% # Reads before turning the bus around for writes
system.mem_ctrls1.rdPerTurnAround::14            2173     17.18%     41.13% # Reads before turning the bus around for writes
system.mem_ctrls1.rdPerTurnAround::15            2765     21.87%     63.00% # Reads before turning the bus around for writes
system.mem_ctrls1.rdPerTurnAround::16            3938     31.14%     94.14% # Reads before turning the bus around for writes
system.mem_ctrls1.rdPerTurnAround::17             631      4.99%     99.13% # Reads before turning the bus around for writes
system.mem_ctrls1.rdPerTurnAround::18              95      0.75%     99.88% # Reads before turning the bus around for writes
system.mem_ctrls1.rdPerTurnAround::19              13      0.10%     99.98% # Reads before turning the bus around for writes
system.mem_ctrls1.rdPerTurnAround::20               2      0.02%    100.00% # Reads before turning the bus around for writes
system.mem_ctrls1.rdPerTurnAround::total        12645                       # Reads before turning the bus around for writes
system.mem_ctrls1.wrPerTurnAround::samples        12645                       # Writes before turning the bus around for reads
system.mem_ctrls1.wrPerTurnAround::mean     16.502096                       # Writes before turning the bus around for reads
system.mem_ctrls1.wrPerTurnAround::gmean    16.402714                       # Writes before turning the bus around for reads
system.mem_ctrls1.wrPerTurnAround::stdev     2.528878                       # Writes before turning the bus around for reads
system.mem_ctrls1.wrPerTurnAround::16-17        10919     86.35%     86.35% # Writes before turning the bus around for reads
system.mem_ctrls1.wrPerTurnAround::18-19         1540     12.18%     98.53% # Writes before turning the bus around for reads
system.mem_ctrls1.wrPerTurnAround::20-21            9      0.07%     98.60% # Writes before turning the bus around for reads
system.mem_ctrls1.wrPerTurnAround::22-23           11      0.09%     98.69% # Writes before turning the bus around for reads
system.mem_ctrls1.wrPerTurnAround::24-25           17      0.13%     98.82% # Writes before turning the bus around for reads
system.mem_ctrls1.wrPerTurnAround::26-27           23      0.18%     99.00% # Writes before turning the bus around for reads
system.mem_ctrls1.wrPerTurnAround::28-29           21      0.17%     99.17% # Writes before turning the bus around for reads
system.mem_ctrls1.wrPerTurnAround::30-31           20      0.16%     99.33% # Writes before turning the bus around for reads
system.mem_ctrls1.wrPerTurnAround::32-33           29      0.23%     99.56% # Writes before turning the bus around for reads
system.mem_ctrls1.wrPerTurnAround::34-35           11      0.09%     99.64% # Writes before turning the bus around for reads
system.mem_ctrls1.wrPerTurnAround::36-37            6      0.05%     99.69% # Writes before turning the bus around for reads
system.mem_ctrls1.wrPerTurnAround::38-39            1      0.01%     99.70% # Writes before turning the bus around for reads
system.mem_ctrls1.wrPerTurnAround::40-41            9      0.07%     99.77% # Writes before turning the bus around for reads
system.mem_ctrls1.wrPerTurnAround::42-43            3      0.02%     99.79% # Writes before turning the bus around for reads
system.mem_ctrls1.wrPerTurnAround::44-45            3      0.02%     99.82% # Writes before turning the bus around for reads
system.mem_ctrls1.wrPerTurnAround::48-49           13      0.10%     99.92% # Writes before turning the bus around for reads
system.mem_ctrls1.wrPerTurnAround::52-53            1      0.01%     99.93% # Writes before turning the bus around for reads
system.mem_ctrls1.wrPerTurnAround::54-55            1      0.01%     99.94% # Writes before turning the bus around for reads
system.mem_ctrls1.wrPerTurnAround::56-57            5      0.04%     99.98% # Writes before turning the bus around for reads
system.mem_ctrls1.wrPerTurnAround::58-59            1      0.01%     99.98% # Writes before turning the bus around for reads
system.mem_ctrls1.wrPerTurnAround::64-65            1      0.01%     99.99% # Writes before turning the bus around for reads
system.mem_ctrls1.wrPerTurnAround::126-127            1      0.01%    100.00% # Writes before turning the bus around for reads
system.mem_ctrls1.wrPerTurnAround::total        12645                       # Writes before turning the bus around for reads
system.mem_ctrls1.totQLat                  9798864250                       # Total ticks spent queuing
system.mem_ctrls1.totMemAccLat            13194658000                       # Total ticks spent from burst creation until serviced by the DRAM
system.mem_ctrls1.totBusLat                 905545000                       # Total ticks spent in databus transfers
system.mem_ctrls1.avgQLat                    54104.79                       # Average queueing delay per DRAM burst
system.mem_ctrls1.avgBusLat                   5000.00                       # Average bus latency per DRAM burst
system.mem_ctrls1.avgMemAccLat               72854.79                       # Average memory access latency per DRAM burst
system.mem_ctrls1.avgRdBW                       26.30                       # Average DRAM read bandwidth in MiByte/s
system.mem_ctrls1.avgWrBW                       30.31                       # Average achieved write bandwidth in MiByte/s
system.mem_ctrls1.avgRdBWSys                    31.87                       # Average system read bandwidth in MiByte/s
system.mem_ctrls1.avgWrBWSys                    32.82                       # Average system write bandwidth in MiByte/s
system.mem_ctrls1.peakBW                     12800.00                       # Theoretical peak bandwidth in MiByte/s
system.mem_ctrls1.busUtil                        0.44                       # Data bus utilization in percentage
system.mem_ctrls1.busUtilRead                    0.21                       # Data bus utilization in percentage for reads
system.mem_ctrls1.busUtilWrite                   0.24                       # Data bus utilization in percentage for writes
system.mem_ctrls1.avgRdQLen                      1.00                       # Average read queue length when enqueuing
system.mem_ctrls1.avgWrQLen                     25.31                       # Average write queue length when enqueuing
system.mem_ctrls1.readRowHits                   80643                       # Number of row buffer hits during reads
system.mem_ctrls1.writeRowHits                 120590                       # Number of row buffer hits during writes
system.mem_ctrls1.readRowHitRate                44.53                       # Row buffer hit rate for reads
system.mem_ctrls1.writeRowHitRate               57.79                       # Row buffer hit rate for writes
system.mem_ctrls1.avgGap                    989431.39                       # Average gap between requests
system.mem_ctrls1.pageHitRate                   51.63                       # Row buffer hit rate, read and write combined
system.mem_ctrls1_0.actEnergy              2139022620                       # Energy for activate commands per rank (pJ)
system.mem_ctrls1_0.preEnergy              1136917485                       # Energy for precharge commands per rank (pJ)
system.mem_ctrls1_0.readEnergy             2148997200                       # Energy for read commands per rank (pJ)
system.mem_ctrls1_0.writeEnergy            1744863300                       # Energy for write commands per rank (pJ)
system.mem_ctrls1_0.refreshEnergy        47647507440.000008                       # Energy for refresh commands per rank (pJ)
system.mem_ctrls1_0.actBackEnergy         27307738980                       # Energy for active background per rank (pJ)
system.mem_ctrls1_0.preBackEnergy          1983024000                       # Energy for precharge background per rank (pJ)
system.mem_ctrls1_0.actPowerDownEnergy   153781374450                       # Energy for active power-down per rank (pJ)
system.mem_ctrls1_0.prePowerDownEnergy    53292419520                       # Energy for precharge power-down per rank (pJ)
system.mem_ctrls1_0.selfRefreshEnergy    1269321482460                       # Energy for self refresh per rank (pJ)
system.mem_ctrls1_0.totalEnergy          1560516453615                       # Total energy per rank (pJ)
system.mem_ctrls1_0.averagePower           268.589011                       # Core power per rank (mW)
system.mem_ctrls1_0.totalIdleTime        410237380750                       # Total Idle time Per DRAM Rank
system.mem_ctrls1_0.memoryStateTime::IDLE   2184030250                       # Time in different power states
system.mem_ctrls1_0.memoryStateTime::REF  10014802000                       # Time in different power states
system.mem_ctrls1_0.memoryStateTime::SREF 183013605500                       # Time in different power states
system.mem_ctrls1_0.memoryStateTime::PRE_PDN  78076271000                       # Time in different power states
system.mem_ctrls1_0.memoryStateTime::ACT  18226632250                       # Time in different power states
system.mem_ctrls1_0.memoryStateTime::ACT_PDN 149148263500                       # Time in different power states
system.mem_ctrls1_1.actEnergy              1396069920                       # Energy for activate commands per rank (pJ)
system.mem_ctrls1_1.preEnergy               742028760                       # Energy for precharge commands per rank (pJ)
system.mem_ctrls1_1.readEnergy             1387537620                       # Energy for read commands per rank (pJ)
system.mem_ctrls1_1.writeEnergy            1128621420                       # Energy for write commands per rank (pJ)
system.mem_ctrls1_1.refreshEnergy        48661663440.000008                       # Energy for refresh commands per rank (pJ)
system.mem_ctrls1_1.actBackEnergy         30563078520                       # Energy for active background per rank (pJ)
system.mem_ctrls1_1.preBackEnergy          2225422560                       # Energy for precharge background per rank (pJ)
system.mem_ctrls1_1.actPowerDownEnergy   127505469420                       # Energy for active power-down per rank (pJ)
system.mem_ctrls1_1.prePowerDownEnergy    68984611680                       # Energy for precharge power-down per rank (pJ)
system.mem_ctrls1_1.selfRefreshEnergy    1273145164980                       # Energy for self refresh per rank (pJ)
system.mem_ctrls1_1.totalEnergy          1555763810580                       # Total energy per rank (pJ)
system.mem_ctrls1_1.averagePower           267.771007                       # Core power per rank (mW)
system.mem_ctrls1_1.totalIdleTime        409442161500                       # Total Idle time Per DRAM Rank
system.mem_ctrls1_1.memoryStateTime::IDLE   2218302750                       # Time in different power states
system.mem_ctrls1_1.memoryStateTime::REF  10184644000                       # Time in different power states
system.mem_ctrls1_1.memoryStateTime::SREF 188041136500                       # Time in different power states
system.mem_ctrls1_1.memoryStateTime::PRE_PDN  90815986000                       # Time in different power states
system.mem_ctrls1_1.memoryStateTime::ACT  18812800500                       # Time in different power states
system.mem_ctrls1_1.memoryStateTime::ACT_PDN 130590844750                       # Time in different power states
system.mem_ctrls2.pwrStateResidencyTicks::UNDEFINED 5810053236500                       # Cumulative time (in ticks) in various power states
system.mem_ctrls2.bytes_read::ruby.dir_cntrl2     14085312                       # Number of bytes read from this memory
system.mem_ctrls2.bytes_read::total          14085312                       # Number of bytes read from this memory
system.mem_ctrls2.bytes_written::ruby.dir_cntrl2     14503616                       # Number of bytes written to this memory
system.mem_ctrls2.bytes_written::total       14503616                       # Number of bytes written to this memory
system.mem_ctrls2.num_reads::ruby.dir_cntrl2       220083                       # Number of read requests responded to by this memory
system.mem_ctrls2.num_reads::total             220083                       # Number of read requests responded to by this memory
system.mem_ctrls2.num_writes::ruby.dir_cntrl2       226619                       # Number of write requests responded to by this memory
system.mem_ctrls2.num_writes::total            226619                       # Number of write requests responded to by this memory
system.mem_ctrls2.bw_read::ruby.dir_cntrl2     31963871                       # Total read bandwidth from this memory (bytes/s)
system.mem_ctrls2.bw_read::total             31963871                       # Total read bandwidth from this memory (bytes/s)
system.mem_ctrls2.bw_write::ruby.dir_cntrl2     32913130                       # Write bandwidth from this memory (bytes/s)
system.mem_ctrls2.bw_write::total            32913130                       # Write bandwidth from this memory (bytes/s)
system.mem_ctrls2.bw_total::ruby.dir_cntrl2     64877001                       # Total bandwidth to/from this memory (bytes/s)
system.mem_ctrls2.bw_total::total            64877001                       # Total bandwidth to/from this memory (bytes/s)
system.mem_ctrls2.readReqs                     220083                       # Number of read requests accepted
system.mem_ctrls2.writeReqs                    226619                       # Number of write requests accepted
system.mem_ctrls2.readBursts                   220083                       # Number of DRAM read bursts, including those serviced by the write queue
system.mem_ctrls2.writeBursts                  226619                       # Number of DRAM write bursts, including those merged in the write queue
system.mem_ctrls2.bytesReadDRAM              11544512                       # Total number of bytes read from DRAM
system.mem_ctrls2.bytesReadWrQ                2540800                       # Total number of bytes read from write queue
system.mem_ctrls2.bytesWritten               13383360                       # Total number of bytes written to DRAM
system.mem_ctrls2.bytesReadSys               14085312                       # Total read bytes from the system interface side
system.mem_ctrls2.bytesWrittenSys            14503616                       # Total written bytes from the system interface side
system.mem_ctrls2.servicedByWrQ                 39700                       # Number of DRAM read bursts serviced by the write queue
system.mem_ctrls2.mergedWrBursts                17509                       # Number of DRAM write bursts merged with an existing one
system.mem_ctrls2.neitherReadNorWriteReqs            0                       # Number of requests that are neither read nor write
system.mem_ctrls2.perBankRdBursts::0            11981                       # Per bank write bursts
system.mem_ctrls2.perBankRdBursts::1            12548                       # Per bank write bursts
system.mem_ctrls2.perBankRdBursts::2            12883                       # Per bank write bursts
system.mem_ctrls2.perBankRdBursts::3            11253                       # Per bank write bursts
system.mem_ctrls2.perBankRdBursts::4            14940                       # Per bank write bursts
system.mem_ctrls2.perBankRdBursts::5            18168                       # Per bank write bursts
system.mem_ctrls2.perBankRdBursts::6            12430                       # Per bank write bursts
system.mem_ctrls2.perBankRdBursts::7            12267                       # Per bank write bursts
system.mem_ctrls2.perBankRdBursts::8             4630                       # Per bank write bursts
system.mem_ctrls2.perBankRdBursts::9             6275                       # Per bank write bursts
system.mem_ctrls2.perBankRdBursts::10            6577                       # Per bank write bursts
system.mem_ctrls2.perBankRdBursts::11            5789                       # Per bank write bursts
system.mem_ctrls2.perBankRdBursts::12            6650                       # Per bank write bursts
system.mem_ctrls2.perBankRdBursts::13           17099                       # Per bank write bursts
system.mem_ctrls2.perBankRdBursts::14           14611                       # Per bank write bursts
system.mem_ctrls2.perBankRdBursts::15           12282                       # Per bank write bursts
system.mem_ctrls2.perBankWrBursts::0            13113                       # Per bank write bursts
system.mem_ctrls2.perBankWrBursts::1            15480                       # Per bank write bursts
system.mem_ctrls2.perBankWrBursts::2            15490                       # Per bank write bursts
system.mem_ctrls2.perBankWrBursts::3            13592                       # Per bank write bursts
system.mem_ctrls2.perBankWrBursts::4            16769                       # Per bank write bursts
system.mem_ctrls2.perBankWrBursts::5            23533                       # Per bank write bursts
system.mem_ctrls2.perBankWrBursts::6            14359                       # Per bank write bursts
system.mem_ctrls2.perBankWrBursts::7            13919                       # Per bank write bursts
system.mem_ctrls2.perBankWrBursts::8             5217                       # Per bank write bursts
system.mem_ctrls2.perBankWrBursts::9             7814                       # Per bank write bursts
system.mem_ctrls2.perBankWrBursts::10            8096                       # Per bank write bursts
system.mem_ctrls2.perBankWrBursts::11            6367                       # Per bank write bursts
system.mem_ctrls2.perBankWrBursts::12            7293                       # Per bank write bursts
system.mem_ctrls2.perBankWrBursts::13           18690                       # Per bank write bursts
system.mem_ctrls2.perBankWrBursts::14           15883                       # Per bank write bursts
system.mem_ctrls2.perBankWrBursts::15           13500                       # Per bank write bursts
system.mem_ctrls2.numRdRetry                        0                       # Number of times read queue was full causing retry
[...]
system.ruby.IFETCH.Directory.miss_type_mach_latency_hist_seqr::samples       552426                      
system.ruby.IFETCH.Directory.miss_type_mach_latency_hist_seqr::mean   143.690275                      
system.ruby.IFETCH.Directory.miss_type_mach_latency_hist_seqr::gmean   105.440448                      
system.ruby.IFETCH.Directory.miss_type_mach_latency_hist_seqr::stdev   175.649617                      
system.ruby.IFETCH.Directory.miss_type_mach_latency_hist_seqr |      509053     92.15%     92.15% |       26622      4.82%     96.97% |        4922      0.89%     97.86% |         292      0.05%     97.91% |       11032      2.00%     99.91% |         496      0.09%    100.00% |           9      0.00%    100.00% |           0      0.00%    100.00% |           0      0.00%    100.00% |           0      0.00%    100.00%
system.ruby.IFETCH.Directory.miss_type_mach_latency_hist_seqr::total       552426                      
system.ruby.RMW_Read.Directory.miss_type_mach_latency_hist_seqr::bucket_size          256                      
system.ruby.RMW_Read.Directory.miss_type_mach_latency_hist_seqr::max_bucket         2559                      
system.ruby.RMW_Read.Directory.miss_type_mach_latency_hist_seqr::samples        24105                      
system.ruby.RMW_Read.Directory.miss_type_mach_latency_hist_seqr::mean   148.671106                      
system.ruby.RMW_Read.Directory.miss_type_mach_latency_hist_seqr::gmean    98.147870                      
system.ruby.RMW_Read.Directory.miss_type_mach_latency_hist_seqr::stdev   212.632551                      
system.ruby.RMW_Read.Directory.miss_type_mach_latency_hist_seqr |       22210     92.14%     92.14% |         892      3.70%     95.84% |         168      0.70%     96.54% |          16      0.07%     96.60% |         785      3.26%     99.86% |          34      0.14%    100.00% |           0      0.00%    100.00% |           0      0.00%    100.00% |           0      0.00%    100.00% |           0      0.00%    100.00%
system.ruby.RMW_Read.Directory.miss_type_mach_latency_hist_seqr::total        24105                      
system.ruby.Locked_RMW_Read.Directory.miss_type_mach_latency_hist_seqr::bucket_size          128                      
system.ruby.Locked_RMW_Read.Directory.miss_type_mach_latency_hist_seqr::max_bucket         1279                      
system.ruby.Locked_RMW_Read.Directory.miss_type_mach_latency_hist_seqr::samples           84                      
system.ruby.Locked_RMW_Read.Directory.miss_type_mach_latency_hist_seqr::mean   197.190476                      
system.ruby.Locked_RMW_Read.Directory.miss_type_mach_latency_hist_seqr::gmean   155.538917                      
system.ruby.Locked_RMW_Read.Directory.miss_type_mach_latency_hist_seqr::stdev   211.029689                      
system.ruby.Locked_RMW_Read.Directory.miss_type_mach_latency_hist_seqr |          10     11.90%     11.90% |          63     75.00%     86.90% |           4      4.76%     91.67% |           3      3.57%     95.24% |           1      1.19%     96.43% |           0      0.00%     96.43% |           0      0.00%     96.43% |           0      0.00%     96.43% |           0      0.00%     96.43% |           3      3.57%    100.00%
system.ruby.Locked_RMW_Read.Directory.miss_type_mach_latency_hist_seqr::total           84                      
system.ruby.Directory_Controller.GETX    |      270893     15.21%     15.21% |      219414     12.32%     27.52% |      220083     12.35%     39.88% |      216994     12.18%     52.06% |      201940     11.34%     63.39% |      219721     12.33%     75.73% |      211293     11.86%     87.59% |      221145     12.41%    100.00%
system.ruby.Directory_Controller.GETX::total      1781483                      
system.ruby.Directory_Controller.PUTX    |      270893     15.21%     15.21% |      219414     12.32%     27.52% |      220083     12.35%     39.88% |      216994     12.18%     52.06% |      201940     11.34%     63.39% |      219721     12.33%     75.73% |      211293     11.86%     87.59% |      221145     12.41%    100.00%
system.ruby.Directory_Controller.PUTX::total      1781483                      
system.ruby.Directory_Controller.DMA_READ |         268    100.00%    100.00% |           0      0.00%    100.00% |           0      0.00%    100.00% |           0      0.00%    100.00% |           0      0.00%    100.00% |           0      0.00%    100.00% |           0      0.00%    100.00% |           0      0.00%    100.00%
system.ruby.Directory_Controller.DMA_READ::total          268                      
system.ruby.Directory_Controller.DMA_WRITE |        6536     12.50%     12.50% |        6536     12.50%     25.00% |        6536     12.50%     37.50% |        6536     12.50%     50.00% |        6536     12.50%     62.50% |        6536     12.50%     75.00% |        6536     12.50%     87.50% |        6536     12.50%    100.00%
system.ruby.Directory_Controller.DMA_WRITE::total        52288                      
system.ruby.Directory_Controller.Memory_Data |      270981     15.21%     15.21% |      219414     12.32%     27.53% |      220083     12.35%     39.88% |      216994     12.18%     52.06% |      201940     11.33%     63.39% |      219721     12.33%     75.73% |      211293     11.86%     87.59% |      221145     12.41%    100.00%
system.ruby.Directory_Controller.Memory_Data::total      1781571                      
system.ruby.Directory_Controller.Memory_Ack |      277429     15.13%     15.13% |      225950     12.32%     27.45% |      226619     12.36%     39.81% |      223530     12.19%     52.00% |      208476     11.37%     63.37% |      226257     12.34%     75.71% |      217829     11.88%     87.58% |      227681     12.42%    100.00%
system.ruby.Directory_Controller.Memory_Ack::total      1833771                      
system.ruby.Directory_Controller.I.GETX  |      270893     15.21%     15.21% |      219414     12.32%     27.52% |      220083     12.35%     39.88% |      216994     12.18%     52.06% |      201940     11.34%     63.39% |      219721     12.33%     75.73% |      211293     11.86%     87.59% |      221145     12.41%    100.00%
system.ruby.Directory_Controller.I.GETX::total      1781483                      
system.ruby.Directory_Controller.I.DMA_READ |          88    100.00%    100.00% |           0      0.00%    100.00% |           0      0.00%    100.00% |           0      0.00%    100.00% |           0      0.00%    100.00% |           0      0.00%    100.00% |           0      0.00%    100.00% |           0      0.00%    100.00%
system.ruby.Directory_Controller.I.DMA_READ::total           88                      
system.ruby.Directory_Controller.I.DMA_WRITE |        6536     12.50%     12.50% |        6536     12.50%     25.00% |        6536     12.50%     37.50% |        6536     12.50%     50.00% |        6536     12.50%     62.50% |        6536     12.50%     75.00% |        6536     12.50%     87.50% |        6536     12.50%    100.00%
system.ruby.Directory_Controller.I.DMA_WRITE::total        52288                      
system.ruby.Directory_Controller.M.PUTX  |      270713     15.20%     15.20% |      219414     12.32%     27.52% |      220083     12.36%     39.87% |      216994     12.18%     52.05% |      201940     11.34%     63.39% |      219721     12.33%     75.72% |      211293     11.86%     87.59% |      221145     12.41%    100.00%
system.ruby.Directory_Controller.M.PUTX::total      1781303                      
system.ruby.Directory_Controller.M.DMA_READ |         180    100.00%    100.00% |           0      0.00%    100.00% |           0      0.00%    100.00% |           0      0.00%    100.00% |           0      0.00%    100.00% |           0      0.00%    100.00% |           0      0.00%    100.00% |           0      0.00%    100.00%
system.ruby.Directory_Controller.M.DMA_READ::total          180                      
system.ruby.Directory_Controller.M_DRD.PUTX |         180    100.00%    100.00% |           0      0.00%    100.00% |           0      0.00%    100.00% |           0      0.00%    100.00% |           0      0.00%    100.00% |           0      0.00%    100.00% |           0      0.00%    100.00% |           0      0.00%    100.00%
system.ruby.Directory_Controller.M_DRD.PUTX::total          180                      
system.ruby.Directory_Controller.M_DRDI.Memory_Ack |         180    100.00%    100.00% |           0      0.00%    100.00% |           0      0.00%    100.00% |           0      0.00%    100.00% |           0      0.00%    100.00% |           0      0.00%    100.00% |           0      0.00%    100.00% |           0      0.00%    100.00%
system.ruby.Directory_Controller.M_DRDI.Memory_Ack::total          180                      
system.ruby.Directory_Controller.IM.Memory_Data |      270893     15.21%     15.21% |      219414     12.32%     27.52% |      220083     12.35%     39.88% |      216994     12.18%     52.06% |      201940     11.34%     63.39% |      219721     12.33%     75.73% |      211293     11.86%     87.59% |      221145     12.41%    100.00%
system.ruby.Directory_Controller.IM.Memory_Data::total      1781483                      
system.ruby.Directory_Controller.MI.Memory_Ack |      270713     15.20%     15.20% |      219414     12.32%     27.52% |      220083     12.36%     39.87% |      216994     12.18%     52.05% |      201940     11.34%     63.39% |      219721     12.33%     75.72% |      211293     11.86%     87.59% |      221145     12.41%    100.00%
system.ruby.Directory_Controller.MI.Memory_Ack::total      1781303                      
system.ruby.Directory_Controller.ID.Memory_Data |          88    100.00%    100.00% |           0      0.00%    100.00% |           0      0.00%    100.00% |           0      0.00%    100.00% |           0      0.00%    100.00% |           0      0.00%    100.00% |           0      0.00%    100.00% |           0      0.00%    100.00%
system.ruby.Directory_Controller.ID.Memory_Data::total           88                      
system.ruby.Directory_Controller.ID_W.Memory_Ack |        6536     12.50%     12.50% |        6536     12.50%     25.00% |        6536     12.50%     37.50% |        6536     12.50%     50.00% |        6536     12.50%     62.50% |        6536     12.50%     75.00% |        6536     12.50%     87.50% |        6536     12.50%    100.00%
system.ruby.Directory_Controller.ID_W.Memory_Ack::total        52288                      
system.ruby.DMA_Controller.ReadRequest   |         268    100.00%    100.00% |           0      0.00%    100.00%
system.ruby.DMA_Controller.ReadRequest::total          268                      
system.ruby.DMA_Controller.WriteRequest  |       52288    100.00%    100.00% |           0      0.00%    100.00%
system.ruby.DMA_Controller.WriteRequest::total        52288                      
system.ruby.DMA_Controller.Data          |         268    100.00%    100.00% |           0      0.00%    100.00%
system.ruby.DMA_Controller.Data::total            268                      
system.ruby.DMA_Controller.Ack           |       52288    100.00%    100.00% |           0      0.00%    100.00%
system.ruby.DMA_Controller.Ack::total           52288                      
system.ruby.DMA_Controller.READY.ReadRequest |         268    100.00%    100.00% |           0      0.00%    100.00%
system.ruby.DMA_Controller.READY.ReadRequest::total          268                      
system.ruby.DMA_Controller.READY.WriteRequest |       52288    100.00%    100.00% |           0      0.00%    100.00%
system.ruby.DMA_Controller.READY.WriteRequest::total        52288                      
system.ruby.DMA_Controller.BUSY_RD.Data  |         268    100.00%    100.00% |           0      0.00%    100.00%
system.ruby.DMA_Controller.BUSY_RD.Data::total          268                      
system.ruby.DMA_Controller.BUSY_WR.Ack   |       52288    100.00%    100.00% |           0      0.00%    100.00%
system.ruby.DMA_Controller.BUSY_WR.Ack::total        52288                      
system.ruby.L1Cache_Controller.Load      |    39561986    100.00%    100.00% |           0      0.00%    100.00% |           0      0.00%    100.00% |           0      0.00%    100.00% |           0      0.00%    100.00% |           0      0.00%    100.00% |           0      0.00%    100.00% |           0      0.00%    100.00%
system.ruby.L1Cache_Controller.Load::total     39561986                      
system.ruby.L1Cache_Controller.Ifetch    |   204799518    100.00%    100.00% |           0      0.00%    100.00% |           0      0.00%    100.00% |           0      0.00%    100.00% |           0      0.00%    100.00% |           0      0.00%    100.00% |           0      0.00%    100.00% |           0      0.00%    100.00%
system.ruby.L1Cache_Controller.Ifetch::total    204799518                      
system.ruby.L1Cache_Controller.Store     |    26007381    100.00%    100.00% |           0      0.00%    100.00% |           0      0.00%    100.00% |           0      0.00%    100.00% |           0      0.00%    100.00% |           0      0.00%    100.00% |           0      0.00%    100.00% |           0      0.00%    100.00%
system.ruby.L1Cache_Controller.Store::total     26007381                      
system.ruby.L1Cache_Controller.Data      |     1781483    100.00%    100.00% |           0      0.00%    100.00% |           0      0.00%    100.00% |           0      0.00%    100.00% |           0      0.00%    100.00% |           0      0.00%    100.00% |           0      0.00%    100.00% |           0      0.00%    100.00%
system.ruby.L1Cache_Controller.Data::total      1781483                      
system.ruby.L1Cache_Controller.Inv       |         360    100.00%    100.00% |           0      0.00%    100.00% |           0      0.00%    100.00% |           0      0.00%    100.00% |           0      0.00%    100.00% |           0      0.00%    100.00% |           0      0.00%    100.00% |           0      0.00%    100.00%
system.ruby.L1Cache_Controller.Inv::total          360                      
system.ruby.L1Cache_Controller.Replacement |     1781303    100.00%    100.00% |           0      0.00%    100.00% |           0      0.00%    100.00% |           0      0.00%    100.00% |           0      0.00%    100.00% |           0      0.00%    100.00% |           0      0.00%    100.00% |           0      0.00%    100.00%
system.ruby.L1Cache_Controller.Replacement::total      1781303                      
system.ruby.L1Cache_Controller.Writeback_Ack |     1781483    100.00%    100.00% |           0      0.00%    100.00% |           0      0.00%    100.00% |           0      0.00%    100.00% |           0      0.00%    100.00% |           0      0.00%    100.00% |           0      0.00%    100.00% |           0      0.00%    100.00%
system.ruby.L1Cache_Controller.Writeback_Ack::total      1781483                      
system.ruby.L1Cache_Controller.I.Load    |      640942    100.00%    100.00% |           0      0.00%    100.00% |           0      0.00%    100.00% |           0      0.00%    100.00% |           0      0.00%    100.00% |           0      0.00%    100.00% |           0      0.00%    100.00% |           0      0.00%    100.00%
system.ruby.L1Cache_Controller.I.Load::total       640942                      
system.ruby.L1Cache_Controller.I.Ifetch  |      552426    100.00%    100.00% |           0      0.00%    100.00% |           0      0.00%    100.00% |           0      0.00%    100.00% |           0      0.00%    100.00% |           0      0.00%    100.00% |           0      0.00%    100.00% |           0      0.00%    100.00%
system.ruby.L1Cache_Controller.I.Ifetch::total       552426                      
system.ruby.L1Cache_Controller.I.Store   |      588115    100.00%    100.00% |           0      0.00%    100.00% |           0      0.00%    100.00% |           0      0.00%    100.00% |           0      0.00%    100.00% |           0      0.00%    100.00% |           0      0.00%    100.00% |           0      0.00%    100.00%
system.ruby.L1Cache_Controller.I.Store::total       588115                      
system.ruby.L1Cache_Controller.M.Load    |    38921044    100.00%    100.00% |           0      0.00%    100.00% |           0      0.00%    100.00% |           0      0.00%    100.00% |           0      0.00%    100.00% |           0      0.00%    100.00% |           0      0.00%    100.00% |           0      0.00%    100.00%
system.ruby.L1Cache_Controller.M.Load::total     38921044                      
system.ruby.L1Cache_Controller.M.Ifetch  |   204247092    100.00%    100.00% |           0      0.00%    100.00% |           0      0.00%    100.00% |           0      0.00%    100.00% |           0      0.00%    100.00% |           0      0.00%    100.00% |           0      0.00%    100.00% |           0      0.00%    100.00%
system.ruby.L1Cache_Controller.M.Ifetch::total    204247092                      
system.ruby.L1Cache_Controller.M.Store   |    25419266    100.00%    100.00% |           0      0.00%    100.00% |           0      0.00%    100.00% |           0      0.00%    100.00% |           0      0.00%    100.00% |           0      0.00%    100.00% |           0      0.00%    100.00% |           0      0.00%    100.00%
system.ruby.L1Cache_Controller.M.Store::total     25419266                      
system.ruby.L1Cache_Controller.M.Inv     |         180    100.00%    100.00% |           0      0.00%    100.00% |           0      0.00%    100.00% |           0      0.00%    100.00% |           0      0.00%    100.00% |           0      0.00%    100.00% |           0      0.00%    100.00% |           0      0.00%    100.00%
system.ruby.L1Cache_Controller.M.Inv::total          180                      
system.ruby.L1Cache_Controller.M.Replacement |     1781303    100.00%    100.00% |           0      0.00%    100.00% |           0      0.00%    100.00% |           0      0.00%    100.00% |           0      0.00%    100.00% |           0      0.00%    100.00% |           0      0.00%    100.00% |           0      0.00%    100.00%
system.ruby.L1Cache_Controller.M.Replacement::total      1781303                      
system.ruby.L1Cache_Controller.MI.Inv    |         180    100.00%    100.00% |           0      0.00%    100.00% |           0      0.00%    100.00% |           0      0.00%    100.00% |           0      0.00%    100.00% |           0      0.00%    100.00% |           0      0.00%    100.00% |           0      0.00%    100.00%
system.ruby.L1Cache_Controller.MI.Inv::total          180                      
system.ruby.L1Cache_Controller.MI.Writeback_Ack |     1781483    100.00%    100.00% |           0      0.00%    100.00% |           0      0.00%    100.00% |           0      0.00%    100.00% |           0      0.00%    100.00% |           0      0.00%    100.00% |           0      0.00%    100.00% |           0      0.00%    100.00%
system.ruby.L1Cache_Controller.MI.Writeback_Ack::total      1781483                      
system.ruby.L1Cache_Controller.IS.Data   |     1193368    100.00%    100.00% |           0      0.00%    100.00% |           0      0.00%    100.00% |           0      0.00%    100.00% |           0      0.00%    100.00% |           0      0.00%    100.00% |           0      0.00%    100.00% |           0      0.00%    100.00%
system.ruby.L1Cache_Controller.IS.Data::total      1193368                      
system.ruby.L1Cache_Controller.IM.Data   |      588115    100.00%    100.00% |           0      0.00%    100.00% |           0      0.00%    100.00% |           0      0.00%    100.00% |           0      0.00%    100.00% |           0      0.00%    100.00% |           0      0.00%    100.00% |           0      0.00%    100.00%
system.ruby.L1Cache_Controller.IM.Data::total       588115                      

---------- End Simulation Statistics   ----------
