
---------- Begin Simulation Statistics ----------
sim_seconds                                  0.080338                       # Number of seconds simulated
sim_ticks                                 80338351500                       # Number of ticks simulated
final_tick                                80338351500                       # Number of ticks from beginning of simulation (restored from checkpoints and never reset)
sim_freq                                 1000000000000                       # Frequency of simulated ticks
host_inst_rate                                 241405                       # Simulator instruction rate (inst/s)
host_op_rate                                   279883                       # Simulator op (including micro ops) rate (op/s)
host_tick_rate                               97790676                       # Simulator tick rate (ticks/s)
host_mem_usage                                 688644                       # Number of bytes of host memory used
host_seconds                                   821.53                       # Real time elapsed on the host
sim_insts                                   198321984                       # Number of instructions simulated
sim_ops                                     229933311                       # Number of ops (including micro ops) simulated
system.voltage_domain.voltage                       1                       # Voltage in Volts
system.clk_domain.clock                          1000                       # Clock period in ticks
system.mem_ctrls.pwrStateResidencyTicks::UNDEFINED  80338351500                       # Cumulative time (in ticks) in various power states
system.mem_ctrls.bytes_read::cpu.inst          265984                       # Number of bytes read from this memory
system.mem_ctrls.bytes_read::cpu.data          336128                       # Number of bytes read from this memory
system.mem_ctrls.bytes_read::l2.prefetcher       850816                       # Number of bytes read from this memory
system.mem_ctrls.bytes_read::total            1452928                       # Number of bytes read from this memory
system.mem_ctrls.bytes_inst_read::cpu.inst       265984                       # Number of instructions bytes read from this memory
system.mem_ctrls.bytes_inst_read::total        265984                       # Number of instructions bytes read from this memory
system.mem_ctrls.bytes_written::writebacks         7552                       # Number of bytes written to this memory
system.mem_ctrls.bytes_written::total            7552                       # Number of bytes written to this memory
system.mem_ctrls.num_reads::cpu.inst             4156                       # Number of read requests responded to by this memory
system.mem_ctrls.num_reads::cpu.data             5252                       # Number of read requests responded to by this memory
system.mem_ctrls.num_reads::l2.prefetcher        13294                       # Number of read requests responded to by this memory
system.mem_ctrls.num_reads::total               22702                       # Number of read requests responded to by this memory
system.mem_ctrls.num_writes::writebacks           118                       # Number of write requests responded to by this memory
system.mem_ctrls.num_writes::total                118                       # Number of write requests responded to by this memory
system.mem_ctrls.bw_read::cpu.inst            3310797                       # Total read bandwidth from this memory (bytes/s)
system.mem_ctrls.bw_read::cpu.data            4183905                       # Total read bandwidth from this memory (bytes/s)
system.mem_ctrls.bw_read::l2.prefetcher      10590409                       # Total read bandwidth from this memory (bytes/s)
system.mem_ctrls.bw_read::total              18085111                       # Total read bandwidth from this memory (bytes/s)
system.mem_ctrls.bw_inst_read::cpu.inst       3310797                       # Instruction read bandwidth from this memory (bytes/s)
system.mem_ctrls.bw_inst_read::total          3310797                       # Instruction read bandwidth from this memory (bytes/s)
system.mem_ctrls.bw_write::writebacks           94002                       # Write bandwidth from this memory (bytes/s)
system.mem_ctrls.bw_write::total                94002                       # Write bandwidth from this memory (bytes/s)
system.mem_ctrls.bw_total::writebacks           94002                       # Total bandwidth to/from this memory (bytes/s)
system.mem_ctrls.bw_total::cpu.inst           3310797                       # Total bandwidth to/from this memory (bytes/s)
system.mem_ctrls.bw_total::cpu.data           4183905                       # Total bandwidth to/from this memory (bytes/s)
system.mem_ctrls.bw_total::l2.prefetcher     10590409                       # Total bandwidth to/from this memory (bytes/s)
system.mem_ctrls.bw_total::total             18179113                       # Total bandwidth to/from this memory (bytes/s)
system.mem_ctrls.readReqs                       22702                       # Number of read requests accepted
system.mem_ctrls.writeReqs                        118                       # Number of write requests accepted
system.mem_ctrls.readBursts                     22702                       # Number of DRAM read bursts, including those serviced by the write queue
system.mem_ctrls.writeBursts                      118                       # Number of DRAM write bursts, including those merged in the write queue
system.mem_ctrls.bytesReadDRAM                1451392                       # Total number of bytes read from DRAM
system.mem_ctrls.bytesReadWrQ                    1536                       # Total number of bytes read from write queue
system.mem_ctrls.bytesWritten                    5696                       # Total number of bytes written to DRAM
system.mem_ctrls.bytesReadSys                 1452928                       # Total read bytes from the system interface side
system.mem_ctrls.bytesWrittenSys                 7552                       # Total written bytes from the system interface side
system.mem_ctrls.servicedByWrQ                     24                       # Number of DRAM read bursts serviced by the write queue
system.mem_ctrls.mergedWrBursts                     1                       # Number of DRAM write bursts merged with an existing one
system.mem_ctrls.neitherReadNorWriteReqs            0                       # Number of requests that are neither read nor write
system.mem_ctrls.perBankRdBursts::0              2198                       # Per bank write bursts
system.mem_ctrls.perBankRdBursts::1              1364                       # Per bank write bursts
system.mem_ctrls.perBankRdBursts::2              2341                       # Per bank write bursts
system.mem_ctrls.perBankRdBursts::3              1247                       # Per bank write bursts
system.mem_ctrls.perBankRdBursts::4              1229                       # Per bank write bursts
system.mem_ctrls.perBankRdBursts::5              1294                       # Per bank write bursts
system.mem_ctrls.perBankRdBursts::6              1294                       # Per bank write bursts
system.mem_ctrls.perBankRdBursts::7              1713                       # Per bank write bursts
system.mem_ctrls.perBankRdBursts::8              1913                       # Per bank write bursts
system.mem_ctrls.perBankRdBursts::9              1500                       # Per bank write bursts
system.mem_ctrls.perBankRdBursts::10             1185                       # Per bank write bursts
system.mem_ctrls.perBankRdBursts::11              966                       # Per bank write bursts
system.mem_ctrls.perBankRdBursts::12              931                       # Per bank write bursts
system.mem_ctrls.perBankRdBursts::13             1045                       # Per bank write bursts
system.mem_ctrls.perBankRdBursts::14             1197                       # Per bank write bursts
system.mem_ctrls.perBankRdBursts::15             1261                       # Per bank write bursts
system.mem_ctrls.perBankWrBursts::0                 3                       # Per bank write bursts
system.mem_ctrls.perBankWrBursts::1                14                       # Per bank write bursts
system.mem_ctrls.perBankWrBursts::2                44                       # Per bank write bursts
system.mem_ctrls.perBankWrBursts::3                 1                       # Per bank write bursts
system.mem_ctrls.perBankWrBursts::4                 0                       # Per bank write bursts
system.mem_ctrls.perBankWrBursts::5                11                       # Per bank write bursts
system.mem_ctrls.perBankWrBursts::6                16                       # Per bank write bursts
system.mem_ctrls.perBankWrBursts::7                 0                       # Per bank write bursts
system.mem_ctrls.perBankWrBursts::8                 0                       # Per bank write bursts
system.mem_ctrls.perBankWrBursts::9                 0                       # Per bank write bursts
system.mem_ctrls.perBankWrBursts::10                0                       # Per bank write bursts
system.mem_ctrls.perBankWrBursts::11                0                       # Per bank write bursts
system.mem_ctrls.perBankWrBursts::12                0                       # Per bank write bursts
system.mem_ctrls.perBankWrBursts::13                0                       # Per bank write bursts
system.mem_ctrls.perBankWrBursts::14                0                       # Per bank write bursts
system.mem_ctrls.perBankWrBursts::15                0                       # Per bank write bursts
system.mem_ctrls.numRdRetry                         0                       # Number of times read queue was full causing retry
system.mem_ctrls.numWrRetry                         0                       # Number of times write queue was full causing retry
system.mem_ctrls.totGap                   80338279500                       # Total gap between requests
system.mem_ctrls.readPktSize::0                     0                       # Read request sizes (log2)
system.mem_ctrls.readPktSize::1                     0                       # Read request sizes (log2)
system.mem_ctrls.readPktSize::2                     0                       # Read request sizes (log2)
system.mem_ctrls.readPktSize::3                     0                       # Read request sizes (log2)
system.mem_ctrls.readPktSize::4                     0                       # Read request sizes (log2)
system.mem_ctrls.readPktSize::5                     0                       # Read request sizes (log2)
system.mem_ctrls.readPktSize::6                 22702                       # Read request sizes (log2)
system.mem_ctrls.writePktSize::0                    0                       # Write request sizes (log2)
system.mem_ctrls.writePktSize::1                    0                       # Write request sizes (log2)
system.mem_ctrls.writePktSize::2                    0                       # Write request sizes (log2)
system.mem_ctrls.writePktSize::3                    0                       # Write request sizes (log2)
system.mem_ctrls.writePktSize::4                    0                       # Write request sizes (log2)
system.mem_ctrls.writePktSize::5                    0                       # Write request sizes (log2)
system.mem_ctrls.writePktSize::6                  118                       # Write request sizes (log2)
system.mem_ctrls.rdQLenPdf::0                   10406                       # What read queue length does an incoming req see
system.mem_ctrls.rdQLenPdf::1                    4881                       # What read queue length does an incoming req see
system.mem_ctrls.rdQLenPdf::2                    2736                       # What read queue length does an incoming req see
system.mem_ctrls.rdQLenPdf::3                    1155                       # What read queue length does an incoming req see
system.mem_ctrls.rdQLenPdf::4                     792                       # What read queue length does an incoming req see
system.mem_ctrls.rdQLenPdf::5                     882                       # What read queue length does an incoming req see
system.mem_ctrls.rdQLenPdf::6                     848                       # What read queue length does an incoming req see
system.mem_ctrls.rdQLenPdf::7                     451                       # What read queue length does an incoming req see
system.mem_ctrls.rdQLenPdf::8                     282                       # What read queue length does an incoming req see
system.mem_ctrls.rdQLenPdf::9                     128                       # What read queue length does an incoming req see
system.mem_ctrls.rdQLenPdf::10                     90                       # What read queue length does an incoming req see
system.mem_ctrls.rdQLenPdf::11                     12                       # What read queue length does an incoming req see
system.mem_ctrls.rdQLenPdf::12                      8                       # What read queue length does an incoming req see
system.mem_ctrls.rdQLenPdf::13                      7                       # What read queue length does an incoming req see
system.mem_ctrls.rdQLenPdf::14                      0                       # What read queue length does an incoming req see
system.mem_ctrls.rdQLenPdf::15                      0                       # What read queue length does an incoming req see
system.mem_ctrls.rdQLenPdf::16                      0                       # What read queue length does an incoming req see
system.mem_ctrls.rdQLenPdf::17                      0                       # What read queue length does an incoming req see
system.mem_ctrls.rdQLenPdf::18                      0                       # What read queue length does an incoming req see
system.mem_ctrls.rdQLenPdf::19                      0                       # What read queue length does an incoming req see
system.mem_ctrls.rdQLenPdf::20                      0                       # What read queue length does an incoming req see
system.mem_ctrls.rdQLenPdf::21                      0                       # What read queue length does an incoming req see
system.mem_ctrls.rdQLenPdf::22                      0                       # What read queue length does an incoming req see
system.mem_ctrls.rdQLenPdf::23                      0                       # What read queue length does an incoming req see
system.mem_ctrls.rdQLenPdf::24                      0                       # What read queue length does an incoming req see
system.mem_ctrls.rdQLenPdf::25                      0                       # What read queue length does an incoming req see
system.mem_ctrls.rdQLenPdf::26                      0                       # What read queue length does an incoming req see
system.mem_ctrls.rdQLenPdf::27                      0                       # What read queue length does an incoming req see
system.mem_ctrls.rdQLenPdf::28                      0                       # What read queue length does an incoming req see
system.mem_ctrls.rdQLenPdf::29                      0                       # What read queue length does an incoming req see
system.mem_ctrls.rdQLenPdf::30                      0                       # What read queue length does an incoming req see
system.mem_ctrls.rdQLenPdf::31                      0                       # What read queue length does an incoming req see
system.mem_ctrls.wrQLenPdf::0                       1                       # What write queue length does an incoming req see
system.mem_ctrls.wrQLenPdf::1                       1                       # What write queue length does an incoming req see
system.mem_ctrls.wrQLenPdf::2                       1                       # What write queue length does an incoming req see
system.mem_ctrls.wrQLenPdf::3                       1                       # What write queue length does an incoming req see
system.mem_ctrls.wrQLenPdf::4                       1                       # What write queue length does an incoming req see
system.mem_ctrls.wrQLenPdf::5                       1                       # What write queue length does an incoming req see
system.mem_ctrls.wrQLenPdf::6                       1                       # What write queue length does an incoming req see
system.mem_ctrls.wrQLenPdf::7                       1                       # What write queue length does an incoming req see
system.mem_ctrls.wrQLenPdf::8                       1                       # What write queue length does an incoming req see
system.mem_ctrls.wrQLenPdf::9                       1                       # What write queue length does an incoming req see
system.mem_ctrls.wrQLenPdf::10                      1                       # What write queue length does an incoming req see
system.mem_ctrls.wrQLenPdf::11                      1                       # What write queue length does an incoming req see
system.mem_ctrls.wrQLenPdf::12                      1                       # What write queue length does an incoming req see
system.mem_ctrls.wrQLenPdf::13                      1                       # What write queue length does an incoming req see
system.mem_ctrls.wrQLenPdf::14                      1                       # What write queue length does an incoming req see
system.mem_ctrls.wrQLenPdf::15                      5                       # What write queue length does an incoming req see
system.mem_ctrls.wrQLenPdf::16                      5                       # What write queue length does an incoming req see
system.mem_ctrls.wrQLenPdf::17                      6                       # What write queue length does an incoming req see
system.mem_ctrls.wrQLenPdf::18                      6                       # What write queue length does an incoming req see
system.mem_ctrls.wrQLenPdf::19                      6                       # What write queue length does an incoming req see
system.mem_ctrls.wrQLenPdf::20                      6                       # What write queue length does an incoming req see
system.mem_ctrls.wrQLenPdf::21                      6                       # What write queue length does an incoming req see
system.mem_ctrls.wrQLenPdf::22                      6                       # What write queue length does an incoming req see
system.mem_ctrls.wrQLenPdf::23                      6                       # What write queue length does an incoming req see
system.mem_ctrls.wrQLenPdf::24                      6                       # What write queue length does an incoming req see
system.mem_ctrls.wrQLenPdf::25                      6                       # What write queue length does an incoming req see
system.mem_ctrls.wrQLenPdf::26                      7                       # What write queue length does an incoming req see
system.mem_ctrls.wrQLenPdf::27                      6                       # What write queue length does an incoming req see
system.mem_ctrls.wrQLenPdf::28                      5                       # What write queue length does an incoming req see
system.mem_ctrls.wrQLenPdf::29                      5                       # What write queue length does an incoming req see
system.mem_ctrls.wrQLenPdf::30                      5                       # What write queue length does an incoming req see
system.mem_ctrls.wrQLenPdf::31                      5                       # What write queue length does an incoming req see
system.mem_ctrls.wrQLenPdf::32                      5                       # What write queue length does an incoming req see
system.mem_ctrls.wrQLenPdf::33                      0                       # What write queue length does an incoming req see
system.mem_ctrls.wrQLenPdf::34                      0                       # What write queue length does an incoming req see
system.mem_ctrls.wrQLenPdf::35                      0                       # What write queue length does an incoming req see
system.mem_ctrls.wrQLenPdf::36                      0                       # What write queue length does an incoming req see
system.mem_ctrls.wrQLenPdf::37                      0                       # What write queue length does an incoming req see
system.mem_ctrls.wrQLenPdf::38                      0                       # What write queue length does an incoming req see
system.mem_ctrls.wrQLenPdf::39                      0                       # What write queue length does an incoming req see
system.mem_ctrls.wrQLenPdf::40                      0                       # What write queue length does an incoming req see
system.mem_ctrls.wrQLenPdf::41                      0                       # What write queue length does an incoming req see
system.mem_ctrls.wrQLenPdf::42                      0                       # What write queue length does an incoming req see
system.mem_ctrls.wrQLenPdf::43                      0                       # What write queue length does an incoming req see
system.mem_ctrls.wrQLenPdf::44                      0                       # What write queue length does an incoming req see
system.mem_ctrls.wrQLenPdf::45                      0                       # What write queue length does an incoming req see
system.mem_ctrls.wrQLenPdf::46                      0                       # What write queue length does an incoming req see
system.mem_ctrls.wrQLenPdf::47                      0                       # What write queue length does an incoming req see
system.mem_ctrls.wrQLenPdf::48                      0                       # What write queue length does an incoming req see
system.mem_ctrls.wrQLenPdf::49                      0                       # What write queue length does an incoming req see
system.mem_ctrls.wrQLenPdf::50                      0                       # What write queue length does an incoming req see
system.mem_ctrls.wrQLenPdf::51                      0                       # What write queue length does an incoming req see
system.mem_ctrls.wrQLenPdf::52                      0                       # What write queue length does an incoming req see
system.mem_ctrls.wrQLenPdf::53                      0                       # What write queue length does an incoming req see
system.mem_ctrls.wrQLenPdf::54                      0                       # What write queue length does an incoming req see
system.mem_ctrls.wrQLenPdf::55                      0                       # What write queue length does an incoming req see
system.mem_ctrls.wrQLenPdf::56                      0                       # What write queue length does an incoming req see
system.mem_ctrls.wrQLenPdf::57                      0                       # What write queue length does an incoming req see
system.mem_ctrls.wrQLenPdf::58                      0                       # What write queue length does an incoming req see
system.mem_ctrls.wrQLenPdf::59                      0                       # What write queue length does an incoming req see
system.mem_ctrls.wrQLenPdf::60                      0                       # What write queue length does an incoming req see
system.mem_ctrls.wrQLenPdf::61                      0                       # What write queue length does an incoming req see
system.mem_ctrls.wrQLenPdf::62                      0                       # What write queue length does an incoming req see
system.mem_ctrls.wrQLenPdf::63                      0                       # What write queue length does an incoming req see
system.mem_ctrls.bytesPerActivate::samples         5564                       # Bytes accessed per row activation
system.mem_ctrls.bytesPerActivate::mean    261.613228                       # Bytes accessed per row activation
system.mem_ctrls.bytesPerActivate::gmean   140.623587                       # Bytes accessed per row activation
system.mem_ctrls.bytesPerActivate::stdev   334.177345                       # Bytes accessed per row activation
system.mem_ctrls.bytesPerActivate::0-127         2931     52.68%     52.68% # Bytes accessed per row activation
system.mem_ctrls.bytesPerActivate::128-255         1175     21.12%     73.80% # Bytes accessed per row activation
system.mem_ctrls.bytesPerActivate::256-383          289      5.19%     78.99% # Bytes accessed per row activation
system.mem_ctrls.bytesPerActivate::384-511          145      2.61%     81.60% # Bytes accessed per row activation
system.mem_ctrls.bytesPerActivate::512-639          112      2.01%     83.61% # Bytes accessed per row activation
system.mem_ctrls.bytesPerActivate::640-767           77      1.38%     84.99% # Bytes accessed per row activation
system.mem_ctrls.bytesPerActivate::768-895           47      0.84%     85.84% # Bytes accessed per row activation
system.mem_ctrls.bytesPerActivate::896-1023           50      0.90%     86.74% # Bytes accessed per row activation
system.mem_ctrls.bytesPerActivate::1024-1151          738     13.26%    100.00% # Bytes accessed per row activation
system.mem_ctrls.bytesPerActivate::total         5564                       # Bytes accessed per row activation
system.mem_ctrls.rdPerTurnAround::samples            5                       # Reads before turning the bus around for writes
system.mem_ctrls.rdPerTurnAround::mean    4450.600000                       # Reads before turning the bus around for writes
system.mem_ctrls.rdPerTurnAround::gmean    506.828275                       # Reads before turning the bus around for writes
system.mem_ctrls.rdPerTurnAround::stdev   9293.065172                       # Reads before turning the bus around for writes
system.mem_ctrls.rdPerTurnAround::0-1023            4     80.00%     80.00% # Reads before turning the bus around for writes
system.mem_ctrls.rdPerTurnAround::20480-21503            1     20.00%    100.00% # Reads before turning the bus around for writes
system.mem_ctrls.rdPerTurnAround::total             5                       # Reads before turning the bus around for writes
system.mem_ctrls.wrPerTurnAround::samples            5                       # Writes before turning the bus around for reads
system.mem_ctrls.wrPerTurnAround::mean      17.800000                       # Writes before turning the bus around for reads
system.mem_ctrls.wrPerTurnAround::gmean     17.772078                       # Writes before turning the bus around for reads
system.mem_ctrls.wrPerTurnAround::stdev      1.095445                       # Writes before turning the bus around for reads
system.mem_ctrls.wrPerTurnAround::16                1     20.00%     20.00% # Writes before turning the bus around for reads
system.mem_ctrls.wrPerTurnAround::18                3     60.00%     80.00% # Writes before turning the bus around for reads
system.mem_ctrls.wrPerTurnAround::19                1     20.00%    100.00% # Writes before turning the bus around for reads
system.mem_ctrls.wrPerTurnAround::total             5                       # Writes before turning the bus around for reads
system.mem_ctrls.totQLat                   1677911229                       # Total ticks spent queuing
system.mem_ctrls.totMemAccLat              2103123729                       # Total ticks spent from burst creation until serviced by the DRAM
system.mem_ctrls.totBusLat                  113390000                       # Total ticks spent in databus transfers
system.mem_ctrls.avgQLat                     73988.50                       # Average queueing delay per DRAM burst
system.mem_ctrls.avgBusLat                    5000.00                       # Average bus latency per DRAM burst
system.mem_ctrls.avgMemAccLat                92738.50                       # Average memory access latency per DRAM burst
system.mem_ctrls.avgRdBW                        18.07                       # Average DRAM read bandwidth in MiByte/s
system.mem_ctrls.avgWrBW                         0.07                       # Average achieved write bandwidth in MiByte/s
system.mem_ctrls.avgRdBWSys                     18.09                       # Average system read bandwidth in MiByte/s
system.mem_ctrls.avgWrBWSys                      0.09                       # Average system write bandwidth in MiByte/s
system.mem_ctrls.peakBW                      12800.00                       # Theoretical peak bandwidth in MiByte/s
system.mem_ctrls.busUtil                         0.14                       # Data bus utilization in percentage
system.mem_ctrls.busUtilRead                     0.14                       # Data bus utilization in percentage for reads
system.mem_ctrls.busUtilWrite                    0.00                       # Data bus utilization in percentage for writes
system.mem_ctrls.avgRdQLen                       1.13                       # Average read queue length when enqueuing
system.mem_ctrls.avgWrQLen                      19.12                       # Average write queue length when enqueuing
system.mem_ctrls.readRowHits                    17140                       # Number of row buffer hits during reads
system.mem_ctrls.writeRowHits                      52                       # Number of row buffer hits during writes
system.mem_ctrls.readRowHitRate                 75.58                       # Row buffer hit rate for reads
system.mem_ctrls.writeRowHitRate                44.44                       # Row buffer hit rate for writes
system.mem_ctrls.avgGap                    3520520.57                       # Average gap between requests
system.mem_ctrls.pageHitRate                    75.42                       # Row buffer hit rate, read and write combined
system.mem_ctrls_0.actEnergy                 22540980                       # Energy for activate commands per rank (pJ)
system.mem_ctrls_0.preEnergy                 11954250                       # Energy for precharge commands per rank (pJ)
system.mem_ctrls_0.readEnergy                90535200                       # Energy for read commands per rank (pJ)
system.mem_ctrls_0.writeEnergy                 464580                       # Energy for write commands per rank (pJ)
system.mem_ctrls_0.refreshEnergy         2693967120.000000                       # Energy for refresh commands per rank (pJ)
system.mem_ctrls_0.actBackEnergy            619110630                       # Energy for active background per rank (pJ)
system.mem_ctrls_0.preBackEnergy            170430240                       # Energy for precharge background per rank (pJ)
system.mem_ctrls_0.actPowerDownEnergy      5475985440                       # Energy for active power-down per rank (pJ)
system.mem_ctrls_0.prePowerDownEnergy      4226493120                       # Energy for precharge power-down per rank (pJ)
system.mem_ctrls_0.selfRefreshEnergy      14035015635                       # Energy for self refresh per rank (pJ)
system.mem_ctrls_0.totalEnergy            27347074335                       # Total energy per rank (pJ)
system.mem_ctrls_0.averagePower            340.398734                       # Core power per rank (mW)
system.mem_ctrls_0.totalIdleTime          78535361411                       # Total Idle time Per DRAM Rank
system.mem_ctrls_0.memoryStateTime::IDLE    350239000                       # Time in different power states
system.mem_ctrls_0.memoryStateTime::REF    1147344000                       # Time in different power states
system.mem_ctrls_0.memoryStateTime::SREF  55520286500                       # Time in different power states
system.mem_ctrls_0.memoryStateTime::PRE_PDN  11006473205                       # Time in different power states
system.mem_ctrls_0.memoryStateTime::ACT     305366839                       # Time in different power states
system.mem_ctrls_0.memoryStateTime::ACT_PDN  12008641956                       # Time in different power states
system.mem_ctrls_1.actEnergy                 17264520                       # Energy for activate commands per rank (pJ)
system.mem_ctrls_1.preEnergy                  9161130                       # Energy for precharge commands per rank (pJ)
system.mem_ctrls_1.readEnergy                71385720                       # Energy for read commands per rank (pJ)
system.mem_ctrls_1.writeEnergy                      0                       # Energy for write commands per rank (pJ)
system.mem_ctrls_1.refreshEnergy         1710543120.000000                       # Energy for refresh commands per rank (pJ)
system.mem_ctrls_1.actBackEnergy            402988860                       # Energy for active background per rank (pJ)
system.mem_ctrls_1.preBackEnergy            106845120                       # Energy for precharge background per rank (pJ)
system.mem_ctrls_1.actPowerDownEnergy      3575131200                       # Energy for active power-down per rank (pJ)
system.mem_ctrls_1.prePowerDownEnergy      2654268000                       # Energy for precharge power-down per rank (pJ)
system.mem_ctrls_1.selfRefreshEnergy      15900386085                       # Energy for self refresh per rank (pJ)
system.mem_ctrls_1.totalEnergy            24448250865                       # Total energy per rank (pJ)
system.mem_ctrls_1.averagePower            304.316060                       # Core power per rank (mW)
system.mem_ctrls_1.totalIdleTime          79175429809                       # Total Idle time Per DRAM Rank
system.mem_ctrls_1.memoryStateTime::IDLE    217284000                       # Time in different power states
system.mem_ctrls_1.memoryStateTime::REF     728374000                       # Time in different power states
system.mem_ctrls_1.memoryStateTime::SREF  64423374000                       # Time in different power states
system.mem_ctrls_1.memoryStateTime::PRE_PDN   6912133297                       # Time in different power states
system.mem_ctrls_1.memoryStateTime::ACT     216972441                       # Time in different power states
system.mem_ctrls_1.memoryStateTime::ACT_PDN   7840213762                       # Time in different power states
system.pwrStateResidencyTicks::UNDEFINED  80338351500                       # Cumulative time (in ticks) in various power states
system.cpu.branchPred.lookups                46382566                       # Number of BP lookups
system.cpu.branchPred.condPredicted          26745999                       # Number of conditional branches predicted
system.cpu.branchPred.condIncorrect           2432483                       # Number of conditional branches incorrect
system.cpu.branchPred.BTBLookups             26788471                       # Number of BTB lookups
system.cpu.branchPred.BTBHits                20984979                       # Number of BTB hits
system.cpu.branchPred.BTBCorrect                    0                       # Number of correct BTB predictions (this stat may not work properly.
system.cpu.branchPred.BTBHitPct             78.335859                       # BTB Hit Percentage
system.cpu.branchPred.usedRAS                 6943151                       # Number of times the RAS was used to get a target.
system.cpu.branchPred.RASInCorrect             191523                       # Number of incorrect RAS predictions.
system.cpu.branchPred.indirectLookups         2279722                       # Number of indirect predictor lookups.
system.cpu.branchPred.indirectHits            2239224                       # Number of indirect target hits.
system.cpu.branchPred.indirectMisses            40498                       # Number of indirect misses.
system.cpu.branchPredindirectMispredicted        87927                       # Number of mispredicted indirect branches.
system.cpu_voltage_domain.voltage                   1                       # Voltage in Volts
system.cpu_clk_domain.clock                       500                       # Clock period in ticks
system.cpu.dstage2_mmu.stage2_tlb.walker.pwrStateResidencyTicks::UNDEFINED  80338351500                       # Cumulative time (in ticks) in various power states
system.cpu.dstage2_mmu.stage2_tlb.walker.walks            0                       # Table walker walks requested
system.cpu.dstage2_mmu.stage2_tlb.walker.walkRequestOrigin_Requested::Data            0                       # Table walker requests started/completed, data/inst
system.cpu.dstage2_mmu.stage2_tlb.walker.walkRequestOrigin_Requested::Inst            0                       # Table walker requests started/completed, data/inst
system.cpu.dstage2_mmu.stage2_tlb.walker.walkRequestOrigin_Requested::total            0                       # Table walker requests started/completed, data/inst
system.cpu.dstage2_mmu.stage2_tlb.walker.walkRequestOrigin_Completed::Data            0                       # Table walker requests started/completed, data/inst
system.cpu.dstage2_mmu.stage2_tlb.walker.walkRequestOrigin_Completed::Inst            0                       # Table walker requests started/completed, data/inst
system.cpu.dstage2_mmu.stage2_tlb.walker.walkRequestOrigin_Completed::total            0                       # Table walker requests started/completed, data/inst
system.cpu.dstage2_mmu.stage2_tlb.walker.walkRequestOrigin::total            0                       # Table walker requests started/completed, data/inst
system.cpu.dstage2_mmu.stage2_tlb.inst_hits            0                       # ITB inst hits
system.cpu.dstage2_mmu.stage2_tlb.inst_misses            0                       # ITB inst misses
system.cpu.dstage2_mmu.stage2_tlb.read_hits            0                       # DTB read hits
system.cpu.dstage2_mmu.stage2_tlb.read_misses            0                       # DTB read misses
system.cpu.dstage2_mmu.stage2_tlb.write_hits            0                       # DTB write hits
system.cpu.dstage2_mmu.stage2_tlb.write_misses            0                       # DTB write misses
system.cpu.dstage2_mmu.stage2_tlb.flush_tlb            0                       # Number of times complete TLB was flushed
system.cpu.dstage2_mmu.stage2_tlb.flush_tlb_mva            0                       # Number of times TLB was flushed by MVA
system.cpu.dstage2_mmu.stage2_tlb.flush_tlb_mva_asid            0                       # Number of times TLB was flushed by MVA & ASID
system.cpu.dstage2_mmu.stage2_tlb.flush_tlb_asid            0                       # Number of times TLB was flushed by ASID
system.cpu.dstage2_mmu.stage2_tlb.flush_entries            0                       # Number of entries that have been flushed from TLB
system.cpu.dstage2_mmu.stage2_tlb.align_faults            0                       # Number of TLB faults due to alignment restrictions
system.cpu.dstage2_mmu.stage2_tlb.prefetch_faults            0                       # Number of TLB faults due to prefetch
system.cpu.dstage2_mmu.stage2_tlb.domain_faults            0                       # Number of TLB faults due to domain restrictions
system.cpu.dstage2_mmu.stage2_tlb.perms_faults            0                       # Number of TLB faults due to permissions restrictions
system.cpu.dstage2_mmu.stage2_tlb.read_accesses            0                       # DTB read accesses
system.cpu.dstage2_mmu.stage2_tlb.write_accesses            0                       # DTB write accesses
system.cpu.dstage2_mmu.stage2_tlb.inst_accesses            0                       # ITB inst accesses
system.cpu.dstage2_mmu.stage2_tlb.hits              0                       # DTB hits
system.cpu.dstage2_mmu.stage2_tlb.misses            0                       # DTB misses
system.cpu.dstage2_mmu.stage2_tlb.accesses            0                       # DTB accesses
system.cpu.dtb.walker.pwrStateResidencyTicks::UNDEFINED  80338351500                       # Cumulative time (in ticks) in various power states
system.cpu.dtb.walker.walks                         0                       # Table walker walks requested
system.cpu.dtb.walker.walkRequestOrigin_Requested::Data            0                       # Table walker requests started/completed, data/inst
system.cpu.dtb.walker.walkRequestOrigin_Requested::Inst            0                       # Table walker requests started/completed, data/inst
system.cpu.dtb.walker.walkRequestOrigin_Requested::total            0                       # Table walker requests started/completed, data/inst
system.cpu.dtb.walker.walkRequestOrigin_Completed::Data            0                       # Table walker requests started/completed, data/inst
system.cpu.dtb.walker.walkRequestOrigin_Completed::Inst            0                       # Table walker requests started/completed, data/inst
system.cpu.dtb.walker.walkRequestOrigin_Completed::total            0                       # Table walker requests started/completed, data/inst
system.cpu.dtb.walker.walkRequestOrigin::total            0                       # Table walker requests started/completed, data/inst
system.cpu.dtb.inst_hits                            0                       # ITB inst hits
system.cpu.dtb.inst_misses                          0                       # ITB inst misses
system.cpu.dtb.read_hits                            0                       # DTB read hits
system.cpu.dtb.read_misses                          0                       # DTB read misses
system.cpu.dtb.write_hits                           0                       # DTB write hits
system.cpu.dtb.write_misses                         0                       # DTB write misses
system.cpu.dtb.flush_tlb                            0                       # Number of times complete TLB was flushed
system.cpu.dtb.flush_tlb_mva                        0                       # Number of times TLB was flushed by MVA
system.cpu.dtb.flush_tlb_mva_asid                   0                       # Number of times TLB was flushed by MVA & ASID
system.cpu.dtb.flush_tlb_asid                       0                       # Number of times TLB was flushed by ASID
system.cpu.dtb.flush_entries                        0                       # Number of entries that have been flushed from TLB
system.cpu.dtb.align_faults                         0                       # Number of TLB faults due to alignment restrictions
system.cpu.dtb.prefetch_faults                      0                       # Number of TLB faults due to prefetch
system.cpu.dtb.domain_faults                        0                       # Number of TLB faults due to domain restrictions
system.cpu.dtb.perms_faults                         0                       # Number of TLB faults due to permissions restrictions
system.cpu.dtb.read_accesses                        0                       # DTB read accesses
system.cpu.dtb.write_accesses                       0                       # DTB write accesses
system.cpu.dtb.inst_accesses                        0                       # ITB inst accesses
system.cpu.dtb.hits                                 0                       # DTB hits
system.cpu.dtb.misses                               0                       # DTB misses
system.cpu.dtb.accesses                             0                       # DTB accesses
system.cpu.istage2_mmu.stage2_tlb.walker.pwrStateResidencyTicks::UNDEFINED  80338351500                       # Cumulative time (in ticks) in various power states
system.cpu.istage2_mmu.stage2_tlb.walker.walks            0                       # Table walker walks requested
system.cpu.istage2_mmu.stage2_tlb.walker.walkRequestOrigin_Requested::Data            0                       # Table walker requests started/completed, data/inst
system.cpu.istage2_mmu.stage2_tlb.walker.walkRequestOrigin_Requested::Inst            0                       # Table walker requests started/completed, data/inst
system.cpu.istage2_mmu.stage2_tlb.walker.walkRequestOrigin_Requested::total            0                       # Table walker requests started/completed, data/inst
system.cpu.istage2_mmu.stage2_tlb.walker.walkRequestOrigin_Completed::Data            0                       # Table walker requests started/completed, data/inst
system.cpu.istage2_mmu.stage2_tlb.walker.walkRequestOrigin_Completed::Inst            0                       # Table walker requests started/completed, data/inst
system.cpu.istage2_mmu.stage2_tlb.walker.walkRequestOrigin_Completed::total            0                       # Table walker requests started/completed, data/inst
system.cpu.istage2_mmu.stage2_tlb.walker.walkRequestOrigin::total            0                       # Table walker requests started/completed, data/inst
system.cpu.istage2_mmu.stage2_tlb.inst_hits            0                       # ITB inst hits
system.cpu.istage2_mmu.stage2_tlb.inst_misses            0                       # ITB inst misses
system.cpu.istage2_mmu.stage2_tlb.read_hits            0                       # DTB read hits
system.cpu.istage2_mmu.stage2_tlb.read_misses            0                       # DTB read misses
system.cpu.istage2_mmu.stage2_tlb.write_hits            0                       # DTB write hits
system.cpu.istage2_mmu.stage2_tlb.write_misses            0                       # DTB write misses
system.cpu.istage2_mmu.stage2_tlb.flush_tlb            0                       # Number of times complete TLB was flushed
system.cpu.istage2_mmu.stage2_tlb.flush_tlb_mva            0                       # Number of times TLB was flushed by MVA
system.cpu.istage2_mmu.stage2_tlb.flush_tlb_mva_asid            0                       # Number of times TLB was flushed by MVA & ASID
system.cpu.istage2_mmu.stage2_tlb.flush_tlb_asid            0                       # Number of times TLB was flushed by ASID
system.cpu.istage2_mmu.stage2_tlb.flush_entries            0                       # Number of entries that have been flushed from TLB
system.cpu.istage2_mmu.stage2_tlb.align_faults            0                       # Number of TLB faults due to alignment restrictions
system.cpu.istage2_mmu.stage2_tlb.prefetch_faults            0                       # Number of TLB faults due to prefetch
system.cpu.istage2_mmu.stage2_tlb.domain_faults            0                       # Number of TLB faults due to domain restrictions
system.cpu.istage2_mmu.stage2_tlb.perms_faults            0                       # Number of TLB faults due to permissions restrictions
system.cpu.istage2_mmu.stage2_tlb.read_accesses            0                       # DTB read accesses
system.cpu.istage2_mmu.stage2_tlb.write_accesses            0                       # DTB write accesses
system.cpu.istage2_mmu.stage2_tlb.inst_accesses            0                       # ITB inst accesses
system.cpu.istage2_mmu.stage2_tlb.hits              0                       # DTB hits
system.cpu.istage2_mmu.stage2_tlb.misses            0                       # DTB misses
system.cpu.istage2_mmu.stage2_tlb.accesses            0                       # DTB accesses
system.cpu.itb.walker.pwrStateResidencyTicks::UNDEFINED  80338351500                       # Cumulative time (in ticks) in various power states
system.cpu.itb.walker.walks                         0                       # Table walker walks requested
system.cpu.itb.walker.walkRequestOrigin_Requested::Data            0                       # Table walker requests started/completed, data/inst
system.cpu.itb.walker.walkRequestOrigin_Requested::Inst            0                       # Table walker requests started/completed, data/inst
system.cpu.itb.walker.walkRequestOrigin_Requested::total            0                       # Table walker requests started/completed, data/inst
system.cpu.itb.walker.walkRequestOrigin_Completed::Data            0                       # Table walker requests started/completed, data/inst
system.cpu.itb.walker.walkRequestOrigin_Completed::Inst            0                       # Table walker requests started/completed, data/inst
system.cpu.itb.walker.walkRequestOrigin_Completed::total            0                       # Table walker requests started/completed, data/inst
system.cpu.itb.walker.walkRequestOrigin::total            0                       # Table walker requests started/completed, data/inst
system.cpu.itb.inst_hits                            0                       # ITB inst hits
system.cpu.itb.inst_misses                          0                       # ITB inst misses
system.cpu.itb.read_hits                            0                       # DTB read hits
system.cpu.itb.read_misses                          0                       # DTB read misses
system.cpu.itb.write_hits                           0                       # DTB write hits
system.cpu.itb.write_misses                         0                       # DTB write misses
system.cpu.itb.flush_tlb                            0                       # Number of times complete TLB was flushed
system.cpu.itb.flush_tlb_mva                        0                       # Number of times TLB was flushed by MVA
system.cpu.itb.flush_tlb_mva_asid                   0                       # Number of times TLB was flushed by MVA & ASID
system.cpu.itb.flush_tlb_asid                       0                       # Number of times TLB was flushed by ASID
system.cpu.itb.flush_entries                        0                       # Number of entries that have been flushed from TLB
system.cpu.itb.align_faults                         0                       # Number of TLB faults due to alignment restrictions
system.cpu.itb.prefetch_faults                      0                       # Number of TLB faults due to prefetch
system.cpu.itb.domain_faults                        0                       # Number of TLB faults due to domain restrictions
system.cpu.itb.perms_faults                         0                       # Number of TLB faults due to permissions restrictions
system.cpu.itb.read_accesses                        0                       # DTB read accesses
system.cpu.itb.write_accesses                       0                       # DTB write accesses
system.cpu.itb.inst_accesses                        0                       # ITB inst accesses
system.cpu.itb.hits                                 0                       # DTB hits
system.cpu.itb.misses                               0                       # DTB misses
system.cpu.itb.accesses                             0                       # DTB accesses
system.cpu.workload.numSyscalls                    75                       # Number of system calls
system.cpu.pwrStateResidencyTicks::ON     80338351500                       # Cumulative time (in ticks) in various power states
system.cpu.numCycles                        160676704                       # number of cpu cycles simulated
system.cpu.numWorkItemsStarted                      0                       # number of work items this cpu started
system.cpu.numWorkItemsCompleted                    0                       # number of work items this cpu completed
system.cpu.fetch.icacheStallCycles            3690569                       # Number of cycles fetch is stalled on an Icache miss
system.cpu.fetch.Insts                      266746061                       # Number of instructions fetch has processed
system.cpu.fetch.Branches                    46382566                       # Number of branches that fetch encountered
system.cpu.fetch.predictedBranches           30167354                       # Number of branches that fetch has predicted taken
system.cpu.fetch.Cycles                     153932949                       # Number of cycles fetch has run and was not squashing or blocked
system.cpu.fetch.SquashCycles                 4887238                       # Number of cycles fetch has spent squashing
system.cpu.fetch.MiscStallCycles                 4612                       # Number of cycles fetch has spent waiting on interrupts, or bad addresses, or out of MSHRs
system.cpu.fetch.PendingTrapStallCycles           283                       # Number of stall cycles due to pending traps
system.cpu.fetch.IcacheWaitRetryStallCycles         6622                       # Number of stall cycles due to full MSHR
system.cpu.fetch.CacheLines                  90776277                       # Number of cache lines fetched
system.cpu.fetch.IcacheSquashes                 33788                       # Number of outstanding Icache misses that were squashed
system.cpu.fetch.rateDist::samples          160078654                       # Number of instructions fetched each cycle (Total)
system.cpu.fetch.rateDist::mean              1.924735                       # Number of instructions fetched each cycle (Total)
system.cpu.fetch.rateDist::stdev             1.040289                       # Number of instructions fetched each cycle (Total)
system.cpu.fetch.rateDist::underflows               0      0.00%      0.00% # Number of instructions fetched each cycle (Total)
system.cpu.fetch.rateDist::0                 12335493      7.71%      7.71% # Number of instructions fetched each cycle (Total)
system.cpu.fetch.rateDist::1                 56089774     35.04%     42.74% # Number of instructions fetched each cycle (Total)
system.cpu.fetch.rateDist::2                 22940902     14.33%     57.08% # Number of instructions fetched each cycle (Total)
system.cpu.fetch.rateDist::3                 68712485     42.92%    100.00% # Number of instructions fetched each cycle (Total)
system.cpu.fetch.rateDist::overflows                0      0.00%    100.00% # Number of instructions fetched each cycle (Total)
system.cpu.fetch.rateDist::min_value                0                       # Number of instructions fetched each cycle (Total)
system.cpu.fetch.rateDist::max_value                3                       # Number of instructions fetched each cycle (Total)
system.cpu.fetch.rateDist::total            160078654                       # Number of instructions fetched each cycle (Total)
system.cpu.fetch.branchRate                  0.288670                       # Number of branch fetches per cycle
system.cpu.fetch.rate                        1.660141                       # Number of inst fetches per cycle
system.cpu.decode.IdleCycles                 10894388                       # Number of cycles decode is idle
system.cpu.decode.BlockedCycles              17751627                       # Number of cycles decode is blocked
system.cpu.decode.RunCycles                 122649943                       # Number of cycles decode is running
system.cpu.decode.UnblockCycles               6397836                       # Number of cycles decode is unblocking
system.cpu.decode.SquashCycles                2384860                       # Number of cycles decode is squashing
system.cpu.decode.BranchResolved             19622339                       # Number of times decode resolved a branch
system.cpu.decode.BranchMispred                 60253                       # Number of times decode detected a branch misprediction
system.cpu.decode.DecodedInsts              283197449                       # Number of instructions handled by decode
system.cpu.decode.SquashedInsts              10100303                       # Number of squashed instructions handled by decode
system.cpu.rename.SquashCycles                2384860                       # Number of cycles rename is squashing
system.cpu.rename.IdleCycles                 20960690                       # Number of cycles rename is idle
system.cpu.rename.BlockCycles                 9117795                       # Number of cycles rename is blocking
system.cpu.rename.serializeStallCycles         572237                       # count of cycles rename stalled for serializing inst
system.cpu.rename.RunCycles                 118699351                       # Number of cycles rename is running
system.cpu.rename.UnblockCycles               8343721                       # Number of cycles rename is unblocking
system.cpu.rename.RenamedInsts              273274708                       # Number of instructions processed by rename
system.cpu.rename.SquashedInsts               4886055                       # Number of squashed instructions processed by rename
system.cpu.rename.ROBFullEvents               2213154                       # Number of times rename has blocked due to ROB full
system.cpu.rename.IQFullEvents                2296056                       # Number of times rename has blocked due to IQ full
system.cpu.rename.LQFullEvents                 283793                       # Number of times rename has blocked due to LQ full
system.cpu.rename.SQFullEvents                1397457                       # Number of times rename has blocked due to SQ full
system.cpu.rename.RenamedOperands           365182550                       # Number of destination operands rename has renamed
system.cpu.rename.RenameLookups            1289034757                       # Number of register rename lookups that rename has made
system.cpu.rename.int_rename_lookups        361066935                       # Number of integer rename lookups
system.cpu.rename.fp_rename_lookups                16                       # Number of floating rename lookups
system.cpu.rename.CommittedMaps             305748753                       # Number of HB maps that are committed
system.cpu.rename.UndoneMaps                 59433797                       # Number of HB maps that are undone due to squashing
system.cpu.rename.serializingInsts               9450                       # count of serializing insts renamed
system.cpu.rename.tempSerializingInsts           6428                       # count of temporary serializing insts renamed
system.cpu.rename.skidInsts                  12367253                       # count of insts added to the skid buffer
system.cpu.memDep0.insertedLoads             31138463                       # Number of loads inserted to the mem dependence unit.
system.cpu.memDep0.insertedStores            24415228                       # Number of stores inserted to the mem dependence unit.
system.cpu.memDep0.conflictingLoads           1143195                       # Number of conflicting loads.
system.cpu.memDep0.conflictingStores          5841099                       # Number of conflicting stores.
system.cpu.iq.iqInstsAdded                  268670892                       # Number of instructions added to the IQ (excludes non-spec)
system.cpu.iq.iqNonSpecInstsAdded               12176                       # Number of non-speculative instructions added to the IQ
system.cpu.iq.iqInstsIssued                 247482421                       # Number of instructions issued
system.cpu.iq.iqSquashedInstsIssued           2680323                       # Number of squashed instructions issued
system.cpu.iq.iqSquashedInstsExamined        38749756                       # Number of squashed instructions iterated over during squash; mainly for profiling
system.cpu.iq.iqSquashedOperandsExamined    118567612                       # Number of squashed operands that are examined and possibly removed from graph
system.cpu.iq.iqSquashedNonSpecRemoved            661                       # Number of squashed non-spec instructions that were removed
system.cpu.iq.issued_per_cycle::samples     160078654                       # Number of insts issued each cycle
system.cpu.iq.issued_per_cycle::mean         1.546005                       # Number of insts issued each cycle
system.cpu.iq.issued_per_cycle::stdev        1.032002                       # Number of insts issued each cycle
system.cpu.iq.issued_per_cycle::underflows            0      0.00%      0.00% # Number of insts issued each cycle
system.cpu.iq.issued_per_cycle::0            33793988     21.11%     21.11% # Number of insts issued each cycle
system.cpu.iq.issued_per_cycle::1            35223562     22.00%     43.11% # Number of insts issued each cycle
system.cpu.iq.issued_per_cycle::2            62397014     38.98%     82.09% # Number of insts issued each cycle
system.cpu.iq.issued_per_cycle::3            27192113     16.99%     99.08% # Number of insts issued each cycle
system.cpu.iq.issued_per_cycle::4             1471393      0.92%    100.00% # Number of insts issued each cycle
system.cpu.iq.issued_per_cycle::5                 584      0.00%    100.00% # Number of insts issued each cycle
system.cpu.iq.issued_per_cycle::6                   0      0.00%    100.00% # Number of insts issued each cycle
system.cpu.iq.issued_per_cycle::7                   0      0.00%    100.00% # Number of insts issued each cycle
system.cpu.iq.issued_per_cycle::8                   0      0.00%    100.00% # Number of insts issued each cycle
system.cpu.iq.issued_per_cycle::overflows            0      0.00%    100.00% # Number of insts issued each cycle
system.cpu.iq.issued_per_cycle::min_value            0                       # Number of insts issued each cycle
system.cpu.iq.issued_per_cycle::max_value            5                       # Number of insts issued each cycle
system.cpu.iq.issued_per_cycle::total       160078654                       # Number of insts issued each cycle
system.cpu.iq.fu_full::No_OpClass                   0      0.00%      0.00% # attempts to use FU when none available
system.cpu.iq.fu_full::IntAlu                37995465     74.72%     74.72% # attempts to use FU when none available
system.cpu.iq.fu_full::IntMult                   1324      0.00%     74.72% # attempts to use FU when none available
system.cpu.iq.fu_full::IntDiv                       0      0.00%     74.72% # attempts to use FU when none available
system.cpu.iq.fu_full::FloatAdd                     0      0.00%     74.72% # attempts to use FU when none available
system.cpu.iq.fu_full::FloatCmp                     0      0.00%     74.72% # attempts to use FU when none available
system.cpu.iq.fu_full::FloatCvt                     0      0.00%     74.72% # attempts to use FU when none available
system.cpu.iq.fu_full::FloatMult                    0      0.00%     74.72% # attempts to use FU when none available
system.cpu.iq.fu_full::FloatMultAcc                 0      0.00%     74.72% # attempts to use FU when none available
system.cpu.iq.fu_full::FloatDiv                     0      0.00%     74.72% # attempts to use FU when none available
system.cpu.iq.fu_full::FloatMisc                    0      0.00%     74.72% # attempts to use FU when none available
system.cpu.iq.fu_full::FloatSqrt                    0      0.00%     74.72% # attempts to use FU when none available
system.cpu.iq.fu_full::SimdAdd                      0      0.00%     74.72% # attempts to use FU when none available
system.cpu.iq.fu_full::SimdAddAcc                   0      0.00%     74.72% # attempts to use FU when none available
system.cpu.iq.fu_full::SimdAlu                      0      0.00%     74.72% # attempts to use FU when none available
system.cpu.iq.fu_full::SimdCmp                      0      0.00%     74.72% # attempts to use FU when none available
system.cpu.iq.fu_full::SimdCvt                      0      0.00%     74.72% # attempts to use FU when none available
system.cpu.iq.fu_full::SimdMisc                     0      0.00%     74.72% # attempts to use FU when none available
system.cpu.iq.fu_full::SimdMult                     0      0.00%     74.72% # attempts to use FU when none available
system.cpu.iq.fu_full::SimdMultAcc                  0      0.00%     74.72% # attempts to use FU when none available
system.cpu.iq.fu_full::SimdShift                    0      0.00%     74.72% # attempts to use FU when none available
system.cpu.iq.fu_full::SimdShiftAcc                 0      0.00%     74.72% # attempts to use FU when none available
system.cpu.iq.fu_full::SimdSqrt                     0      0.00%     74.72% # attempts to use FU when none available
system.cpu.iq.fu_full::SimdFloatAdd                 0      0.00%     74.72% # attempts to use FU when none available
system.cpu.iq.fu_full::SimdFloatAlu                 0      0.00%     74.72% # attempts to use FU when none available
system.cpu.iq.fu_full::SimdFloatCmp                 0      0.00%     74.72% # attempts to use FU when none available
system.cpu.iq.fu_full::SimdFloatCvt                 0      0.00%     74.72% # attempts to use FU when none available
system.cpu.iq.fu_full::SimdFloatDiv                 0      0.00%     74.72% # attempts to use FU when none available
system.cpu.iq.fu_full::SimdFloatMisc                0      0.00%     74.72% # attempts to use FU when none available
system.cpu.iq.fu_full::SimdFloatMult                0      0.00%     74.72% # attempts to use FU when none available
system.cpu.iq.fu_full::SimdFloatMultAcc             0      0.00%     74.72% # attempts to use FU when none available
system.cpu.iq.fu_full::SimdFloatSqrt                0      0.00%     74.72% # attempts to use FU when none available
system.cpu.iq.fu_full::MemRead                8170728     16.07%     90.79% # attempts to use FU when none available
system.cpu.iq.fu_full::MemWrite               4683528      9.21%    100.00% # attempts to use FU when none available
system.cpu.iq.fu_full::FloatMemRead                 0      0.00%    100.00% # attempts to use FU when none available
system.cpu.iq.fu_full::FloatMemWrite               14      0.00%    100.00% # attempts to use FU when none available
system.cpu.iq.fu_full::IprAccess                    0      0.00%    100.00% # attempts to use FU when none available
system.cpu.iq.fu_full::InstPrefetch                 0      0.00%    100.00% # attempts to use FU when none available
system.cpu.iq.FU_type_0::No_OpClass                 0      0.00%      0.00% # Type of FU issued
system.cpu.iq.FU_type_0::IntAlu             192466648     77.77%     77.77% # Type of FU issued
system.cpu.iq.FU_type_0::IntMult              1831102      0.74%     78.51% # Type of FU issued
system.cpu.iq.FU_type_0::IntDiv                     0      0.00%     78.51% # Type of FU issued
system.cpu.iq.FU_type_0::FloatAdd                   0      0.00%     78.51% # Type of FU issued
system.cpu.iq.FU_type_0::FloatCmp                   0      0.00%     78.51% # Type of FU issued
system.cpu.iq.FU_type_0::FloatCvt                   0      0.00%     78.51% # Type of FU issued
system.cpu.iq.FU_type_0::FloatMult                  0      0.00%     78.51% # Type of FU issued
system.cpu.iq.FU_type_0::FloatMultAcc               0      0.00%     78.51% # Type of FU issued
system.cpu.iq.FU_type_0::FloatDiv                   0      0.00%     78.51% # Type of FU issued
system.cpu.iq.FU_type_0::FloatMisc                  0      0.00%     78.51% # Type of FU issued
system.cpu.iq.FU_type_0::FloatSqrt                  0      0.00%     78.51% # Type of FU issued
system.cpu.iq.FU_type_0::SimdAdd                    0      0.00%     78.51% # Type of FU issued
system.cpu.iq.FU_type_0::SimdAddAcc                 0      0.00%     78.51% # Type of FU issued
system.cpu.iq.FU_type_0::SimdAlu                    0      0.00%     78.51% # Type of FU issued
system.cpu.iq.FU_type_0::SimdCmp                    0      0.00%     78.51% # Type of FU issued
system.cpu.iq.FU_type_0::SimdCvt                    0      0.00%     78.51% # Type of FU issued
system.cpu.iq.FU_type_0::SimdMisc                   0      0.00%     78.51% # Type of FU issued
system.cpu.iq.FU_type_0::SimdMult                   0      0.00%     78.51% # Type of FU issued
system.cpu.iq.FU_type_0::SimdMultAcc                0      0.00%     78.51% # Type of FU issued
system.cpu.iq.FU_type_0::SimdShift                  0      0.00%     78.51% # Type of FU issued
system.cpu.iq.FU_type_0::SimdShiftAcc               0      0.00%     78.51% # Type of FU issued
system.cpu.iq.FU_type_0::SimdSqrt                   0      0.00%     78.51% # Type of FU issued
system.cpu.iq.FU_type_0::SimdFloatAdd               0      0.00%     78.51% # Type of FU issued
system.cpu.iq.FU_type_0::SimdFloatAlu               0      0.00%     78.51% # Type of FU issued
system.cpu.iq.FU_type_0::SimdFloatCmp               0      0.00%     78.51% # Type of FU issued
system.cpu.iq.FU_type_0::SimdFloatCvt               0      0.00%     78.51% # Type of FU issued
system.cpu.iq.FU_type_0::SimdFloatDiv               0      0.00%     78.51% # Type of FU issued
system.cpu.iq.FU_type_0::SimdFloatMisc           2956      0.00%     78.51% # Type of FU issued
system.cpu.iq.FU_type_0::SimdFloatMult              0      0.00%     78.51% # Type of FU issued
system.cpu.iq.FU_type_0::SimdFloatMultAcc            0      0.00%     78.51% # Type of FU issued
system.cpu.iq.FU_type_0::SimdFloatSqrt              0      0.00%     78.51% # Type of FU issued
system.cpu.iq.FU_type_0::MemRead             30329024     12.26%     90.77% # Type of FU issued
system.cpu.iq.FU_type_0::MemWrite            22852675      9.23%    100.00% # Type of FU issued
system.cpu.iq.FU_type_0::FloatMemRead               0      0.00%    100.00% # Type of FU issued
system.cpu.iq.FU_type_0::FloatMemWrite             16      0.00%    100.00% # Type of FU issued
system.cpu.iq.FU_type_0::IprAccess                  0      0.00%    100.00% # Type of FU issued
system.cpu.iq.FU_type_0::InstPrefetch               0      0.00%    100.00% # Type of FU issued
system.cpu.iq.FU_type_0::total              247482421                       # Type of FU issued
system.cpu.iq.rate                           1.540251                       # Inst issue rate
system.cpu.iq.fu_busy_cnt                    50851059                       # FU busy when requested
system.cpu.iq.fu_busy_rate                   0.205473                       # FU busy rate (busy events/executed inst)
system.cpu.iq.int_inst_queue_reads          708574832                       # Number of integer instruction queue reads
system.cpu.iq.int_inst_queue_writes         307444642                       # Number of integer instruction queue writes
system.cpu.iq.int_inst_queue_wakeup_accesses    242133162                       # Number of integer instruction queue wakeup accesses
system.cpu.iq.fp_inst_queue_reads                  46                       # Number of floating instruction queue reads
system.cpu.iq.fp_inst_queue_writes                 16                       # Number of floating instruction queue writes
system.cpu.iq.fp_inst_queue_wakeup_accesses           16                       # Number of floating instruction queue wakeup accesses
system.cpu.iq.int_alu_accesses              298333450                       # Number of integer alu accesses
system.cpu.iq.fp_alu_accesses                      30                       # Number of floating point alu accesses
system.cpu.iew.lsq.thread0.forwLoads           718563                       # Number of loads that had data forwarded from stores
system.cpu.iew.lsq.thread0.invAddrLoads             0                       # Number of loads ignored due to an invalid address
system.cpu.iew.lsq.thread0.squashedLoads      5527324                       # Number of loads squashed
system.cpu.iew.lsq.thread0.ignoredResponses         4117                       # Number of memory responses ignored because the instruction is squashed
system.cpu.iew.lsq.thread0.memOrderViolation        11878                       # Number of memory ordering violations
system.cpu.iew.lsq.thread0.squashedStores      2613958                       # Number of stores squashed
system.cpu.iew.lsq.thread0.invAddrSwpfs             0                       # Number of software prefetches ignored due to an invalid address
system.cpu.iew.lsq.thread0.blockedLoads             0                       # Number of blocked loads due to partial load-store forwarding
system.cpu.iew.lsq.thread0.rescheduledLoads      1025413                       # Number of loads that were rescheduled
system.cpu.iew.lsq.thread0.cacheBlocked         64515                       # Number of times an access to memory failed due to the cache being blocked
system.cpu.iew.iewIdleCycles                        0                       # Number of cycles IEW is idle
system.cpu.iew.iewSquashCycles                2384860                       # Number of cycles IEW is squashing
system.cpu.iew.iewBlockCycles                 3379005                       # Number of cycles IEW is blocking
system.cpu.iew.iewUnblockCycles                133684                       # Number of cycles IEW is unblocking
system.cpu.iew.iewDispatchedInsts           268683094                       # Number of instructions dispatched to IQ
system.cpu.iew.iewDispSquashedInsts                 0                       # Number of squashed instructions skipped by dispatch
system.cpu.iew.iewDispLoadInsts              31138463                       # Number of dispatched load instructions
system.cpu.iew.iewDispStoreInsts             24415228                       # Number of dispatched store instructions
system.cpu.iew.iewDispNonSpecInsts               6425                       # Number of dispatched non-speculative instructions
system.cpu.iew.iewIQFullEvents                  20129                       # Number of times the IQ has become full, causing a stall
system.cpu.iew.iewLSQFullEvents                 95795                       # Number of times the LSQ has become full, causing a stall
system.cpu.iew.memOrderViolationEvents          11878                       # Number of memory order violations
system.cpu.iew.predictedTakenIncorrect        1459652                       # Number of branches that were predicted taken incorrectly
system.cpu.iew.predictedNotTakenIncorrect      1026207                       # Number of branches that were predicted not taken incorrectly
system.cpu.iew.branchMispredicts              2485859                       # Number of branch mispredicts detected at execute
system.cpu.iew.iewExecutedInsts             244281270                       # Number of executed instructions
system.cpu.iew.iewExecLoadInsts              29283803                       # Number of load instructions executed
system.cpu.iew.iewExecSquashedInsts           3201151                       # Number of squashed instructions skipped in execute
system.cpu.iew.exec_swp                             0                       # number of swp insts executed
system.cpu.iew.exec_nop                            26                       # number of nop insts executed
system.cpu.iew.exec_refs                     51750309                       # number of memory reference insts executed
system.cpu.iew.exec_branches                 36343625                       # Number of branches executed
system.cpu.iew.exec_stores                   22466506                       # Number of stores executed
system.cpu.iew.exec_rate                     1.520328                       # Inst execution rate
system.cpu.iew.wb_sent                      242322502                       # cumulative count of insts sent to commit
system.cpu.iew.wb_count                     242133178                       # cumulative count of insts written-back
system.cpu.iew.wb_producers                 156543494                       # num instructions producing a value
system.cpu.iew.wb_consumers                 362031156                       # num instructions consuming a value
system.cpu.iew.wb_rate                       1.506959                       # insts written-back per cycle
system.cpu.iew.wb_fanout                     0.432403                       # average fanout of values written-back
system.cpu.commit.commitSquashedInsts        34212280                       # The number of squashed insts skipped by commit
system.cpu.commit.commitNonSpecStalls           11515                       # The number of times commit has been forced to stall to communicate backwards
system.cpu.commit.branchMispredicts           2373724                       # The number of times a branch was mispredicted
system.cpu.commit.committed_per_cycle::samples    154686576                       # Number of insts commited each cycle
system.cpu.commit.committed_per_cycle::mean     1.486446                       # Number of insts commited each cycle
system.cpu.commit.committed_per_cycle::stdev     1.798284                       # Number of insts commited each cycle
system.cpu.commit.committed_per_cycle::underflows            0      0.00%      0.00% # Number of insts commited each cycle
system.cpu.commit.committed_per_cycle::0     51535352     33.32%     33.32% # Number of insts commited each cycle
system.cpu.commit.committed_per_cycle::1     50512011     32.65%     65.97% # Number of insts commited each cycle
system.cpu.commit.committed_per_cycle::2     24979232     16.15%     82.12% # Number of insts commited each cycle
system.cpu.commit.committed_per_cycle::3      9690755      6.26%     88.38% # Number of insts commited each cycle
system.cpu.commit.committed_per_cycle::4      6515533      4.21%     92.60% # Number of insts commited each cycle
system.cpu.commit.committed_per_cycle::5      3570494      2.31%     94.90% # Number of insts commited each cycle
system.cpu.commit.committed_per_cycle::6      2588015      1.67%     96.58% # Number of insts commited each cycle
system.cpu.commit.committed_per_cycle::7      1413593      0.91%     97.49% # Number of insts commited each cycle
system.cpu.commit.committed_per_cycle::8      3881591      2.51%    100.00% # Number of insts commited each cycle
system.cpu.commit.committed_per_cycle::overflows            0      0.00%    100.00% # Number of insts commited each cycle
system.cpu.commit.committed_per_cycle::min_value            0                       # Number of insts commited each cycle
system.cpu.commit.committed_per_cycle::max_value            8                       # Number of insts commited each cycle
system.cpu.commit.committed_per_cycle::total    154686576                       # Number of insts commited each cycle
system.cpu.commit.committedInsts            198321984                       # Number of instructions committed
system.cpu.commit.committedOps              229933311                       # Number of ops (including micro ops) committed
system.cpu.commit.swp_count                         0                       # Number of s/w prefetches committed
system.cpu.commit.refs                       47412409                       # Number of memory references committed
system.cpu.commit.loads                      25611139                       # Number of loads committed
system.cpu.commit.membars                        5751                       # Number of memory barriers committed
system.cpu.commit.branches                   34642987                       # Number of branches committed
system.cpu.commit.vec_insts                         0                       # Number of committed Vector instructions.
system.cpu.commit.fp_insts                         16                       # Number of committed floating point instructions.
system.cpu.commit.int_insts                 213034987                       # Number of committed integer instructions.
system.cpu.commit.function_calls              8279490                       # Number of function calls committed.
system.cpu.commit.op_class_0::No_OpClass            0      0.00%      0.00% # Class of committed instruction
system.cpu.commit.op_class_0::IntAlu        180896944     78.67%     78.67% # Class of committed instruction
system.cpu.commit.op_class_0::IntMult         1621002      0.70%     79.38% # Class of committed instruction
system.cpu.commit.op_class_0::IntDiv                0      0.00%     79.38% # Class of committed instruction
system.cpu.commit.op_class_0::FloatAdd              0      0.00%     79.38% # Class of committed instruction
system.cpu.commit.op_class_0::FloatCmp              0      0.00%     79.38% # Class of committed instruction
system.cpu.commit.op_class_0::FloatCvt              0      0.00%     79.38% # Class of committed instruction
system.cpu.commit.op_class_0::FloatMult             0      0.00%     79.38% # Class of committed instruction
[...]
system.l2.blocked_cycles::no_mshrs                  0                       # number of cycles access was blocked
system.l2.blocked_cycles::no_targets                0                       # number of cycles access was blocked
system.l2.blocked::no_mshrs                         0                       # number of cycles access was blocked
system.l2.blocked::no_targets                       0                       # number of cycles access was blocked
system.l2.avg_blocked_cycles::no_mshrs            nan                       # average number of cycles each access was blocked
system.l2.avg_blocked_cycles::no_targets          nan                       # average number of cycles each access was blocked
system.l2.unused_prefetches                         4                       # number of HardPF blocks evicted w/o reference
system.l2.writebacks::writebacks                  118                       # number of writebacks
system.l2.writebacks::total                       118                       # number of writebacks
system.l2.ReadExReq_mshr_hits::cpu.data          1186                       # number of ReadExReq MSHR hits
system.l2.ReadExReq_mshr_hits::total             1186                       # number of ReadExReq MSHR hits
system.l2.ReadCleanReq_mshr_hits::cpu.inst            4                       # number of ReadCleanReq MSHR hits
system.l2.ReadCleanReq_mshr_hits::total             4                       # number of ReadCleanReq MSHR hits
system.l2.ReadSharedReq_mshr_hits::cpu.data           32                       # number of ReadSharedReq MSHR hits
system.l2.ReadSharedReq_mshr_hits::total           32                       # number of ReadSharedReq MSHR hits
system.l2.demand_mshr_hits::cpu.inst                4                       # number of demand (read+write) MSHR hits
system.l2.demand_mshr_hits::cpu.data             1218                       # number of demand (read+write) MSHR hits
system.l2.demand_mshr_hits::total                1222                       # number of demand (read+write) MSHR hits
system.l2.overall_mshr_hits::cpu.inst               4                       # number of overall MSHR hits
system.l2.overall_mshr_hits::cpu.data            1218                       # number of overall MSHR hits
system.l2.overall_mshr_hits::total               1222                       # number of overall MSHR hits
system.l2.HardPFReq_mshr_misses::l2.prefetcher       196379                       # number of HardPFReq MSHR misses
system.l2.HardPFReq_mshr_misses::total         196379                       # number of HardPFReq MSHR misses
system.l2.UpgradeReq_mshr_misses::cpu.data           10                       # number of UpgradeReq MSHR misses
system.l2.UpgradeReq_mshr_misses::total            10                       # number of UpgradeReq MSHR misses
system.l2.ReadExReq_mshr_misses::cpu.data         2202                       # number of ReadExReq MSHR misses
system.l2.ReadExReq_mshr_misses::total           2202                       # number of ReadExReq MSHR misses
system.l2.ReadCleanReq_mshr_misses::cpu.inst         4156                       # number of ReadCleanReq MSHR misses
system.l2.ReadCleanReq_mshr_misses::total         4156                       # number of ReadCleanReq MSHR misses
system.l2.ReadSharedReq_mshr_misses::cpu.data         3049                       # number of ReadSharedReq MSHR misses
system.l2.ReadSharedReq_mshr_misses::total         3049                       # number of ReadSharedReq MSHR misses
system.l2.demand_mshr_misses::cpu.inst           4156                       # number of demand (read+write) MSHR misses
system.l2.demand_mshr_misses::cpu.data           5251                       # number of demand (read+write) MSHR misses
system.l2.demand_mshr_misses::total              9407                       # number of demand (read+write) MSHR misses
system.l2.overall_mshr_misses::cpu.inst          4156                       # number of overall MSHR misses
system.l2.overall_mshr_misses::cpu.data          5251                       # number of overall MSHR misses
system.l2.overall_mshr_misses::l2.prefetcher       196379                       # number of overall MSHR misses
system.l2.overall_mshr_misses::total           205786                       # number of overall MSHR misses
system.l2.HardPFReq_mshr_miss_latency::l2.prefetcher   1228830206                       # number of HardPFReq MSHR miss cycles
system.l2.HardPFReq_mshr_miss_latency::total   1228830206                       # number of HardPFReq MSHR miss cycles
system.l2.UpgradeReq_mshr_miss_latency::cpu.data       156000                       # number of UpgradeReq MSHR miss cycles
system.l2.UpgradeReq_mshr_miss_latency::total       156000                       # number of UpgradeReq MSHR miss cycles
system.l2.ReadExReq_mshr_miss_latency::cpu.data    234472000                       # number of ReadExReq MSHR miss cycles
system.l2.ReadExReq_mshr_miss_latency::total    234472000                       # number of ReadExReq MSHR miss cycles
system.l2.ReadCleanReq_mshr_miss_latency::cpu.inst    430419000                       # number of ReadCleanReq MSHR miss cycles
system.l2.ReadCleanReq_mshr_miss_latency::total    430419000                       # number of ReadCleanReq MSHR miss cycles
system.l2.ReadSharedReq_mshr_miss_latency::cpu.data    977768000                       # number of ReadSharedReq MSHR miss cycles
system.l2.ReadSharedReq_mshr_miss_latency::total    977768000                       # number of ReadSharedReq MSHR miss cycles
system.l2.demand_mshr_miss_latency::cpu.inst    430419000                       # number of demand (read+write) MSHR miss cycles
system.l2.demand_mshr_miss_latency::cpu.data   1212240000                       # number of demand (read+write) MSHR miss cycles
system.l2.demand_mshr_miss_latency::total   1642659000                       # number of demand (read+write) MSHR miss cycles
system.l2.overall_mshr_miss_latency::cpu.inst    430419000                       # number of overall MSHR miss cycles
system.l2.overall_mshr_miss_latency::cpu.data   1212240000                       # number of overall MSHR miss cycles
system.l2.overall_mshr_miss_latency::l2.prefetcher   1228830206                       # number of overall MSHR miss cycles
system.l2.overall_mshr_miss_latency::total   2871489206                       # number of overall MSHR miss cycles
system.l2.HardPFReq_mshr_miss_rate::l2.prefetcher          inf                       # mshr miss rate for HardPFReq accesses
system.l2.HardPFReq_mshr_miss_rate::total          inf                       # mshr miss rate for HardPFReq accesses
system.l2.UpgradeReq_mshr_miss_rate::cpu.data            1                       # mshr miss rate for UpgradeReq accesses
system.l2.UpgradeReq_mshr_miss_rate::total            1                       # mshr miss rate for UpgradeReq accesses
system.l2.ReadExReq_mshr_miss_rate::cpu.data     0.011888                       # mshr miss rate for ReadExReq accesses
system.l2.ReadExReq_mshr_miss_rate::total     0.011888                       # mshr miss rate for ReadExReq accesses
system.l2.ReadCleanReq_mshr_miss_rate::cpu.inst     0.040233                       # mshr miss rate for ReadCleanReq accesses
system.l2.ReadCleanReq_mshr_miss_rate::total     0.040233                       # mshr miss rate for ReadCleanReq accesses
system.l2.ReadSharedReq_mshr_miss_rate::cpu.data     0.006022                       # mshr miss rate for ReadSharedReq accesses
system.l2.ReadSharedReq_mshr_miss_rate::total     0.006022                       # mshr miss rate for ReadSharedReq accesses
system.l2.demand_mshr_miss_rate::cpu.inst     0.040233                       # mshr miss rate for demand accesses
system.l2.demand_mshr_miss_rate::cpu.data     0.007593                       # mshr miss rate for demand accesses
system.l2.demand_mshr_miss_rate::total       0.011835                       # mshr miss rate for demand accesses
system.l2.overall_mshr_miss_rate::cpu.inst     0.040233                       # mshr miss rate for overall accesses
system.l2.overall_mshr_miss_rate::cpu.data     0.007593                       # mshr miss rate for overall accesses
system.l2.overall_mshr_miss_rate::l2.prefetcher          inf                       # mshr miss rate for overall accesses
system.l2.overall_mshr_miss_rate::total      0.258895                       # mshr miss rate for overall accesses
system.l2.HardPFReq_avg_mshr_miss_latency::l2.prefetcher  6257.442018                       # average HardPFReq mshr miss latency
system.l2.HardPFReq_avg_mshr_miss_latency::total  6257.442018                       # average HardPFReq mshr miss latency
system.l2.UpgradeReq_avg_mshr_miss_latency::cpu.data        15600                       # average UpgradeReq mshr miss latency
system.l2.UpgradeReq_avg_mshr_miss_latency::total        15600                       # average UpgradeReq mshr miss latency
system.l2.ReadExReq_avg_mshr_miss_latency::cpu.data 106481.380563                       # average ReadExReq mshr miss latency
system.l2.ReadExReq_avg_mshr_miss_latency::total 106481.380563                       # average ReadExReq mshr miss latency
system.l2.ReadCleanReq_avg_mshr_miss_latency::cpu.inst 103565.688162                       # average ReadCleanReq mshr miss latency
system.l2.ReadCleanReq_avg_mshr_miss_latency::total 103565.688162                       # average ReadCleanReq mshr miss latency
system.l2.ReadSharedReq_avg_mshr_miss_latency::cpu.data 320684.814693                       # average ReadSharedReq mshr miss latency
system.l2.ReadSharedReq_avg_mshr_miss_latency::total 320684.814693                       # average ReadSharedReq mshr miss latency
system.l2.demand_avg_mshr_miss_latency::cpu.inst 103565.688162                       # average overall mshr miss latency
system.l2.demand_avg_mshr_miss_latency::cpu.data 230858.884022                       # average overall mshr miss latency
system.l2.demand_avg_mshr_miss_latency::total 174620.920591                       # average overall mshr miss latency
system.l2.overall_avg_mshr_miss_latency::cpu.inst 103565.688162                       # average overall mshr miss latency
system.l2.overall_avg_mshr_miss_latency::cpu.data 230858.884022                       # average overall mshr miss latency
system.l2.overall_avg_mshr_miss_latency::l2.prefetcher  6257.442018                       # average overall mshr miss latency
system.l2.overall_avg_mshr_miss_latency::total 13953.763648                       # average overall mshr miss latency
system.membus.snoop_filter.tot_requests         22891                       # Total number of requests made to the snoop filter.
system.membus.snoop_filter.hit_single_requests         3381                       # Number of requests hitting in the snoop filter with a single holder of the requested data.
system.membus.snoop_filter.hit_multi_requests            0                       # Number of requests hitting in the snoop filter with multiple (>1) holders of the requested data.
system.membus.snoop_filter.tot_snoops               0                       # Total number of snoops made to the snoop filter.
system.membus.snoop_filter.hit_single_snoops            0                       # Number of snoops hitting in the snoop filter with a single holder of the requested data.
system.membus.snoop_filter.hit_multi_snoops            0                       # Number of snoops hitting in the snoop filter with multiple (>1) holders of the requested data.
system.membus.pwrStateResidencyTicks::UNDEFINED  80338351500                       # Cumulative time (in ticks) in various power states
system.membus.trans_dist::ReadResp              20499                       # Transaction distribution
system.membus.trans_dist::WritebackDirty          118                       # Transaction distribution
system.membus.trans_dist::CleanEvict               61                       # Transaction distribution
system.membus.trans_dist::UpgradeReq               10                       # Transaction distribution
system.membus.trans_dist::ReadExReq              2203                       # Transaction distribution
system.membus.trans_dist::ReadExResp             2203                       # Transaction distribution
system.membus.trans_dist::ReadSharedReq         20499                       # Transaction distribution
system.membus.pkt_count_system.l2.mem_side::system.mem_ctrls.port        45593                       # Packet count per connected master and slave (bytes)
system.membus.pkt_count::total                  45593                       # Packet count per connected master and slave (bytes)
system.membus.pkt_size_system.l2.mem_side::system.mem_ctrls.port      1460480                       # Cumulative packet size per connected master and slave (bytes)
system.membus.pkt_size::total                 1460480                       # Cumulative packet size per connected master and slave (bytes)
system.membus.snoops                                0                       # Total snoops (count)
system.membus.snoopTraffic                          0                       # Total snoop traffic (bytes)
system.membus.snoop_fanout::samples             22712                       # Request fanout histogram
system.membus.snoop_fanout::mean                    0                       # Request fanout histogram
system.membus.snoop_fanout::stdev                   0                       # Request fanout histogram
system.membus.snoop_fanout::underflows              0      0.00%      0.00% # Request fanout histogram
system.membus.snoop_fanout::0                   22712    100.00%    100.00% # Request fanout histogram
system.membus.snoop_fanout::1                       0      0.00%    100.00% # Request fanout histogram
system.membus.snoop_fanout::overflows               0      0.00%    100.00% # Request fanout histogram
system.membus.snoop_fanout::min_value               0                       # Request fanout histogram
system.membus.snoop_fanout::max_value               0                       # Request fanout histogram
system.membus.snoop_fanout::total               22712                       # Request fanout histogram
system.membus.reqLayer0.occupancy            33111189                       # Layer occupancy (ticks)
system.membus.reqLayer0.utilization               0.0                       # Layer utilization (%)
system.membus.respLayer1.occupancy          119185185                       # Layer occupancy (ticks)
system.membus.respLayer1.utilization              0.1                       # Layer utilization (%)
system.tol2bus.snoop_filter.tot_requests      1588207                       # Total number of requests made to the snoop filter.
system.tol2bus.snoop_filter.hit_single_requests       793351                       # Number of requests hitting in the snoop filter with a single holder of the requested data.
system.tol2bus.snoop_filter.hit_multi_requests         3219                       # Number of requests hitting in the snoop filter with multiple (>1) holders of the requested data.
system.tol2bus.snoop_filter.tot_snoops         183085                       # Total number of snoops made to the snoop filter.
system.tol2bus.snoop_filter.hit_single_snoops       183085                       # Number of snoops hitting in the snoop filter with a single holder of the requested data.
system.tol2bus.snoop_filter.hit_multi_snoops            0                       # Number of snoops hitting in the snoop filter with multiple (>1) holders of the requested data.
system.tol2bus.pwrStateResidencyTicks::UNDEFINED  80338351500                       # Cumulative time (in ticks) in various power states
system.tol2bus.trans_dist::ReadResp            609644                       # Transaction distribution
system.tol2bus.trans_dist::WritebackDirty       678887                       # Transaction distribution
system.tol2bus.trans_dist::WritebackClean       114556                       # Transaction distribution
system.tol2bus.trans_dist::CleanEvict              61                       # Transaction distribution
system.tol2bus.trans_dist::HardPFReq           199439                       # Transaction distribution
system.tol2bus.trans_dist::UpgradeReq              10                       # Transaction distribution
system.tol2bus.trans_dist::UpgradeResp             10                       # Transaction distribution
system.tol2bus.trans_dist::ReadExReq           185227                       # Transaction distribution
system.tol2bus.trans_dist::ReadExResp          185227                       # Transaction distribution
system.tol2bus.trans_dist::ReadCleanReq        103308                       # Transaction distribution
system.tol2bus.trans_dist::ReadSharedReq       506337                       # Transaction distribution
system.tol2bus.pkt_count_system.cpu.icache.mem_side::system.l2.cpu_side       309390                       # Packet count per connected master and slave (bytes)
system.tol2bus.pkt_count_system.cpu.dcache.mem_side::system.l2.cpu_side      2073688                       # Packet count per connected master and slave (bytes)
system.tol2bus.pkt_count::total               2383078                       # Packet count per connected master and slave (bytes)
system.tol2bus.pkt_size_system.cpu.icache.mem_side::system.l2.cpu_side     13189248                       # Cumulative packet size per connected master and slave (bytes)
system.tol2bus.pkt_size_system.cpu.dcache.mem_side::system.l2.cpu_side     88454656                       # Cumulative packet size per connected master and slave (bytes)
system.tol2bus.pkt_size::total              101643904                       # Cumulative packet size per connected master and slave (bytes)
system.tol2bus.snoops                          199628                       # Total snoops (count)
system.tol2bus.snoopTraffic                      8192                       # Total snoop traffic (bytes)
system.tol2bus.snoop_fanout::samples           994500                       # Request fanout histogram
system.tol2bus.snoop_fanout::mean            0.187360                       # Request fanout histogram
system.tol2bus.snoop_fanout::stdev           0.390201                       # Request fanout histogram
system.tol2bus.snoop_fanout::underflows             0      0.00%      0.00% # Request fanout histogram
system.tol2bus.snoop_fanout::0                 808170     81.26%     81.26% # Request fanout histogram
system.tol2bus.snoop_fanout::1                 186330     18.74%    100.00% # Request fanout histogram
system.tol2bus.snoop_fanout::2                      0      0.00%    100.00% # Request fanout histogram
system.tol2bus.snoop_fanout::3                      0      0.00%    100.00% # Request fanout histogram
system.tol2bus.snoop_fanout::4                      0      0.00%    100.00% # Request fanout histogram
system.tol2bus.snoop_fanout::overflows              0      0.00%    100.00% # Request fanout histogram
system.tol2bus.snoop_fanout::min_value              0                       # Request fanout histogram
system.tol2bus.snoop_fanout::max_value              1                       # Request fanout histogram
system.tol2bus.snoop_fanout::total             994500                       # Request fanout histogram
system.tol2bus.reqLayer0.occupancy         1587428500                       # Layer occupancy (ticks)
system.tol2bus.reqLayer0.utilization              2.0                       # Layer utilization (%)
system.tol2bus.respLayer0.occupancy         155011398                       # Layer occupancy (ticks)
system.tol2bus.respLayer0.utilization             0.2                       # Layer utilization (%)
system.tol2bus.respLayer1.occupancy        1037368465                       # Layer occupancy (ticks)
system.tol2bus.respLayer1.utilization             1.3                       # Layer utilization (%)

---------- End Simulation Statistics   ----------
