
---------- Begin Simulation Statistics ----------
sim_seconds                                  0.322708                       # Number of seconds simulated
sim_ticks                                322707512500                       # Number of ticks simulated
final_tick                               5540527344500                       # Number of ticks from beginning of simulation (restored from checkpoints and never reset)
sim_freq                                 1000000000000                       # Frequency of simulated ticks
host_inst_rate                                 659236                       # Simulator instruction rate (inst/s)
host_op_rate                                  1227839                       # Simulator op (including micro ops) rate (op/s)
host_tick_rate                              709134968                       # Simulator tick rate (ticks/s)
host_mem_usage                                1751452                       # Number of bytes of host memory used
host_seconds                                   455.07                       # Real time elapsed on the host
sim_insts                                   300000000                       # Number of instructions simulated
sim_ops                                     558755322                       # Number of ops (including micro ops) simulated
system.voltage_domain.voltage                       1                       # Voltage in Volts
system.clk_domain.clock                          1000                       # Clock period in ticks
system.mem_ctrls0.pwrStateResidencyTicks::UNDEFINED 5540527344500                       # Cumulative time (in ticks) in various power states
system.mem_ctrls0.bytes_read::ruby.dir_cntrl0      1974336                       # Number of bytes read from this memory
system.mem_ctrls0.bytes_read::total           1974336                       # Number of bytes read from this memory
system.mem_ctrls0.bytes_written::ruby.dir_cntrl0      2128384                       # Number of bytes written to this memory
system.mem_ctrls0.bytes_written::total        2128384                       # Number of bytes written to this memory
system.mem_ctrls0.num_reads::ruby.dir_cntrl0        30849                       # Number of read requests responded to by this memory
system.mem_ctrls0.num_reads::total              30849                       # Number of read requests responded to by this memory
system.mem_ctrls0.num_writes::ruby.dir_cntrl0        33256                       # Number of write requests responded to by this memory
system.mem_ctrls0.num_writes::total             33256                       # Number of write requests responded to by this memory
system.mem_ctrls0.bw_read::ruby.dir_cntrl0      6118035                       # Total read bandwidth from this memory (bytes/s)
system.mem_ctrls0.bw_read::total              6118035                       # Total read bandwidth from this memory (bytes/s)
system.mem_ctrls0.bw_write::ruby.dir_cntrl0      6595397                       # Write bandwidth from this memory (bytes/s)
system.mem_ctrls0.bw_write::total             6595397                       # Write bandwidth from this memory (bytes/s)
system.mem_ctrls0.bw_total::ruby.dir_cntrl0     12713432                       # Total bandwidth to/from this memory (bytes/s)
system.mem_ctrls0.bw_total::total            12713432                       # Total bandwidth to/from this memory (bytes/s)
system.mem_ctrls0.readReqs                      30849                       # Number of read requests accepted
system.mem_ctrls0.writeReqs                     33256                       # Number of write requests accepted
system.mem_ctrls0.readBursts                    30849                       # Number of DRAM read bursts, including those serviced by the write queue
system.mem_ctrls0.writeBursts                   33256                       # Number of DRAM write bursts, including those merged in the write queue
system.mem_ctrls0.bytesReadDRAM               1953344                       # Total number of bytes read from DRAM
system.mem_ctrls0.bytesReadWrQ                  20992                       # Total number of bytes read from write queue
system.mem_ctrls0.bytesWritten                2123264                       # Total number of bytes written to DRAM
system.mem_ctrls0.bytesReadSys                1974336                       # Total read bytes from the system interface side
system.mem_ctrls0.bytesWrittenSys             2128384                       # Total written bytes from the system interface side
system.mem_ctrls0.servicedByWrQ                   328                       # Number of DRAM read bursts serviced by the write queue
system.mem_ctrls0.mergedWrBursts                   88                       # Number of DRAM write bursts merged with an existing one
system.mem_ctrls0.neitherReadNorWriteReqs            0                       # Number of requests that are neither read nor write
system.mem_ctrls0.perBankRdBursts::0             1881                       # Per bank write bursts
system.mem_ctrls0.perBankRdBursts::1             1920                       # Per bank write bursts
system.mem_ctrls0.perBankRdBursts::2             2049                       # Per bank write bursts
system.mem_ctrls0.perBankRdBursts::3             1946                       # Per bank write bursts
system.mem_ctrls0.perBankRdBursts::4             1899                       # Per bank write bursts
system.mem_ctrls0.perBankRdBursts::5             1902                       # Per bank write bursts
system.mem_ctrls0.perBankRdBursts::6             1841                       # Per bank write bursts
system.mem_ctrls0.perBankRdBursts::7             1808                       # Per bank write bursts
system.mem_ctrls0.perBankRdBursts::8             1842                       # Per bank write bursts
system.mem_ctrls0.perBankRdBursts::9             1932                       # Per bank write bursts
system.mem_ctrls0.perBankRdBursts::10            1955                       # Per bank write bursts
system.mem_ctrls0.perBankRdBursts::11            1910                       # Per bank write bursts
system.mem_ctrls0.perBankRdBursts::12            1885                       # Per bank write bursts
system.mem_ctrls0.perBankRdBursts::13            1858                       # Per bank write bursts
system.mem_ctrls0.perBankRdBursts::14            1967                       # Per bank write bursts
system.mem_ctrls0.perBankRdBursts::15            1926                       # Per bank write bursts
system.mem_ctrls0.perBankWrBursts::0             2130                       # Per bank write bursts
system.mem_ctrls0.perBankWrBursts::1             1940                       # Per bank write bursts
system.mem_ctrls0.perBankWrBursts::2             2124                       # Per bank write bursts
system.mem_ctrls0.perBankWrBursts::3             1988                       # Per bank write bursts
system.mem_ctrls0.perBankWrBursts::4             1895                       # Per bank write bursts
system.mem_ctrls0.perBankWrBursts::5             2047                       # Per bank write bursts
system.mem_ctrls0.perBankWrBursts::6             1927                       # Per bank write bursts
system.mem_ctrls0.perBankWrBursts::7             1995                       # Per bank write bursts
system.mem_ctrls0.perBankWrBursts::8             2210                       # Per bank write bursts
system.mem_ctrls0.perBankWrBursts::9             2252                       # Per bank write bursts
system.mem_ctrls0.perBankWrBursts::10            2218                       # Per bank write bursts
system.mem_ctrls0.perBankWrBursts::11            2224                       # Per bank write bursts
system.mem_ctrls0.perBankWrBursts::12            2089                       # Per bank write bursts
system.mem_ctrls0.perBankWrBursts::13            2087                       # Per bank write bursts
system.mem_ctrls0.perBankWrBursts::14            2029                       # Per bank write bursts
system.mem_ctrls0.perBankWrBursts::15            2021                       # Per bank write bursts
system.mem_ctrls0.numRdRetry                        0                       # Number of times read queue was full causing retry
system.mem_ctrls0.numWrRetry                       20                       # Number of times write queue was full causing retry
system.mem_ctrls0.totGap                 323609159500                       # Total gap between requests
system.mem_ctrls0.readPktSize::0                    0                       # Read request sizes (log2)
system.mem_ctrls0.readPktSize::1                    0                       # Read request sizes (log2)
system.mem_ctrls0.readPktSize::2                    0                       # Read request sizes (log2)
system.mem_ctrls0.readPktSize::3                    0                       # Read request sizes (log2)
system.mem_ctrls0.readPktSize::4                    0                       # Read request sizes (log2)
system.mem_ctrls0.readPktSize::5                    0                       # Read request sizes (log2)
system.mem_ctrls0.readPktSize::6                30849                       # Read request sizes (log2)
system.mem_ctrls0.writePktSize::0                   0                       # Write request sizes (log2)
system.mem_ctrls0.writePktSize::1                   0                       # Write request sizes (log2)
system.mem_ctrls0.writePktSize::2                   0                       # Write request sizes (log2)
system.mem_ctrls0.writePktSize::3                   0                       # Write request sizes (log2)
system.mem_ctrls0.writePktSize::4                   0                       # Write request sizes (log2)
system.mem_ctrls0.writePktSize::5                   0                       # Write request sizes (log2)
system.mem_ctrls0.writePktSize::6               33256                       # Write request sizes (log2)
system.mem_ctrls0.rdQLenPdf::0                  30520                       # What read queue length does an incoming req see
system.mem_ctrls0.rdQLenPdf::1                      1                       # What read queue length does an incoming req see
system.mem_ctrls0.rdQLenPdf::2                      0                       # What read queue length does an incoming req see
system.mem_ctrls0.rdQLenPdf::3                      0                       # What read queue length does an incoming req see
system.mem_ctrls0.rdQLenPdf::4                      0                       # What read queue length does an incoming req see
system.mem_ctrls0.rdQLenPdf::5                      0                       # What read queue length does an incoming req see
system.mem_ctrls0.rdQLenPdf::6                      0                       # What read queue length does an incoming req see
system.mem_ctrls0.rdQLenPdf::7                      0                       # What read queue length does an incoming req see
system.mem_ctrls0.rdQLenPdf::8                      0                       # What read queue length does an incoming req see
system.mem_ctrls0.rdQLenPdf::9                      0                       # What read queue length does an incoming req see
system.mem_ctrls0.rdQLenPdf::10                     0                       # What read queue length does an incoming req see
system.mem_ctrls0.rdQLenPdf::11                     0                       # What read queue length does an incoming req see
system.mem_ctrls0.rdQLenPdf::12                     0                       # What read queue length does an incoming req see
system.mem_ctrls0.rdQLenPdf::13                     0                       # What read queue length does an incoming req see
system.mem_ctrls0.rdQLenPdf::14                     0                       # What read queue length does an incoming req see
system.mem_ctrls0.rdQLenPdf::15                     0                       # What read queue length does an incoming req see
system.mem_ctrls0.rdQLenPdf::16                     0                       # What read queue length does an incoming req see
system.mem_ctrls0.rdQLenPdf::17                     0                       # What read queue length does an incoming req see
system.mem_ctrls0.rdQLenPdf::18                     0                       # What read queue length does an incoming req see
system.mem_ctrls0.rdQLenPdf::19                     0                       # What read queue length does an incoming req see
system.mem_ctrls0.rdQLenPdf::20                     0                       # What read queue length does an incoming req see
system.mem_ctrls0.rdQLenPdf::21                     0                       # What read queue length does an incoming req see
system.mem_ctrls0.rdQLenPdf::22                     0                       # What read queue length does an incoming req see
system.mem_ctrls0.rdQLenPdf::23                     0                       # What read queue length does an incoming req see
system.mem_ctrls0.rdQLenPdf::24                     0                       # What read queue length does an incoming req see
system.mem_ctrls0.rdQLenPdf::25                     0                       # What read queue length does an incoming req see
system.mem_ctrls0.rdQLenPdf::26                     0                       # What read queue length does an incoming req see
system.mem_ctrls0.rdQLenPdf::27                     0                       # What read queue length does an incoming req see
system.mem_ctrls0.rdQLenPdf::28                     0                       # What read queue length does an incoming req see
system.mem_ctrls0.rdQLenPdf::29                     0                       # What read queue length does an incoming req see
system.mem_ctrls0.rdQLenPdf::30                     0                       # What read queue length does an incoming req see
system.mem_ctrls0.rdQLenPdf::31                     0                       # What read queue length does an incoming req see
system.mem_ctrls0.wrQLenPdf::0                      0                       # What write queue length does an incoming req see
system.mem_ctrls0.wrQLenPdf::1                      0                       # What write queue length does an incoming req see
system.mem_ctrls0.wrQLenPdf::2                      0                       # What write queue length does an incoming req see
system.mem_ctrls0.wrQLenPdf::3                      0                       # What write queue length does an incoming req see
system.mem_ctrls0.wrQLenPdf::4                      0                       # What write queue length does an incoming req see
system.mem_ctrls0.wrQLenPdf::5                      0                       # What write queue length does an incoming req see
system.mem_ctrls0.wrQLenPdf::6                      0                       # What write queue length does an incoming req see
system.mem_ctrls0.wrQLenPdf::7                      0                       # What write queue length does an incoming req see
system.mem_ctrls0.wrQLenPdf::8                      0                       # What write queue length does an incoming req see
system.mem_ctrls0.wrQLenPdf::9                      0                       # What write queue length does an incoming req see
system.mem_ctrls0.wrQLenPdf::10                     0                       # What write queue length does an incoming req see
system.mem_ctrls0.wrQLenPdf::11                     0                       # What write queue length does an incoming req see
system.mem_ctrls0.wrQLenPdf::12                     0                       # What write queue length does an incoming req see
system.mem_ctrls0.wrQLenPdf::13                     0                       # What write queue length does an incoming req see
system.mem_ctrls0.wrQLenPdf::14                     0                       # What write queue length does an incoming req see
system.mem_ctrls0.wrQLenPdf::15                   170                       # What write queue length does an incoming req see
system.mem_ctrls0.wrQLenPdf::16                   260                       # What write queue length does an incoming req see
system.mem_ctrls0.wrQLenPdf::17                  1916                       # What write queue length does an incoming req see
system.mem_ctrls0.wrQLenPdf::18                  1947                       # What write queue length does an incoming req see
system.mem_ctrls0.wrQLenPdf::19                  1994                       # What write queue length does an incoming req see
system.mem_ctrls0.wrQLenPdf::20                  1970                       # What write queue length does an incoming req see
system.mem_ctrls0.wrQLenPdf::21                  1969                       # What write queue length does an incoming req see
system.mem_ctrls0.wrQLenPdf::22                  2007                       # What write queue length does an incoming req see
system.mem_ctrls0.wrQLenPdf::23                  1994                       # What write queue length does an incoming req see
system.mem_ctrls0.wrQLenPdf::24                  2056                       # What write queue length does an incoming req see
system.mem_ctrls0.wrQLenPdf::25                  2089                       # What write queue length does an incoming req see
system.mem_ctrls0.wrQLenPdf::26                  1997                       # What write queue length does an incoming req see
system.mem_ctrls0.wrQLenPdf::27                  1975                       # What write queue length does an incoming req see
system.mem_ctrls0.wrQLenPdf::28                  1961                       # What write queue length does an incoming req see
system.mem_ctrls0.wrQLenPdf::29                  1917                       # What write queue length does an incoming req see
system.mem_ctrls0.wrQLenPdf::30                  1909                       # What write queue length does an incoming req see
system.mem_ctrls0.wrQLenPdf::31                  1902                       # What write queue length does an incoming req see
system.mem_ctrls0.wrQLenPdf::32                  1899                       # What write queue length does an incoming req see
system.mem_ctrls0.wrQLenPdf::33                    82                       # What write queue length does an incoming req see
system.mem_ctrls0.wrQLenPdf::34                    66                       # What write queue length does an incoming req see
system.mem_ctrls0.wrQLenPdf::35                    59                       # What write queue length does an incoming req see
system.mem_ctrls0.wrQLenPdf::36                    52                       # What write queue length does an incoming req see
system.mem_ctrls0.wrQLenPdf::37                    53                       # What write queue length does an incoming req see
system.mem_ctrls0.wrQLenPdf::38                    58                       # What write queue length does an incoming req see
system.mem_ctrls0.wrQLenPdf::39                    55                       # What write queue length does an incoming req see
system.mem_ctrls0.wrQLenPdf::40                    59                       # What write queue length does an incoming req see
system.mem_ctrls0.wrQLenPdf::41                    53                       # What write queue length does an incoming req see
system.mem_ctrls0.wrQLenPdf::42                    47                       # What write queue length does an incoming req see
system.mem_ctrls0.wrQLenPdf::43                    50                       # What write queue length does an incoming req see
system.mem_ctrls0.wrQLenPdf::44                    45                       # What write queue length does an incoming req see
system.mem_ctrls0.wrQLenPdf::45                    39                       # What write queue length does an incoming req see
system.mem_ctrls0.wrQLenPdf::46                    40                       # What write queue length does an incoming req see
system.mem_ctrls0.wrQLenPdf::47                    38                       # What write queue length does an incoming req see
system.mem_ctrls0.wrQLenPdf::48                    37                       # What write queue length does an incoming req see
system.mem_ctrls0.wrQLenPdf::49                    36                       # What write queue length does an incoming req see
system.mem_ctrls0.wrQLenPdf::50                    37                       # What write queue length does an incoming req see
system.mem_ctrls0.wrQLenPdf::51                    31                       # What write queue length does an incoming req see
system.mem_ctrls0.wrQLenPdf::52                    27                       # What write queue length does an incoming req see
system.mem_ctrls0.wrQLenPdf::53                    28                       # What write queue length does an incoming req see
system.mem_ctrls0.wrQLenPdf::54                    29                       # What write queue length does an incoming req see
system.mem_ctrls0.wrQLenPdf::55                    34                       # What write queue length does an incoming req see
system.mem_ctrls0.wrQLenPdf::56                    29                       # What write queue length does an incoming req see
system.mem_ctrls0.wrQLenPdf::57                    34                       # What write queue length does an incoming req see
system.mem_ctrls0.wrQLenPdf::58                    26                       # What write queue length does an incoming req see
system.mem_ctrls0.wrQLenPdf::59                    16                       # What write queue length does an incoming req see
system.mem_ctrls0.wrQLenPdf::60                    12                       # What write queue length does an incoming req see
system.mem_ctrls0.wrQLenPdf::61                    12                       # What write queue length does an incoming req see
system.mem_ctrls0.wrQLenPdf::62                    18                       # What write queue length does an incoming req see
system.mem_ctrls0.wrQLenPdf::63                    34                       # What write queue length does an incoming req see
system.mem_ctrls0.bytesPerActivate::samples        16291                       # Bytes accessed per row activation
system.mem_ctrls0.bytesPerActivate::mean   250.236818                       # Bytes accessed per row activation
system.mem_ctrls0.bytesPerActivate::gmean   178.772967                       # Bytes accessed per row activation
system.mem_ctrls0.bytesPerActivate::stdev   213.001228                       # Bytes accessed per row activation
system.mem_ctrls0.bytesPerActivate::0-127         4848     29.76%     29.76% # Bytes accessed per row activation
system.mem_ctrls0.bytesPerActivate::128-255         4442     27.27%     57.03% # Bytes accessed per row activation
system.mem_ctrls0.bytesPerActivate::256-383         2529     15.52%     72.55% # Bytes accessed per row activation
system.mem_ctrls0.bytesPerActivate::384-511         2779     17.06%     89.61% # Bytes accessed per row activation
system.mem_ctrls0.bytesPerActivate::512-639          786      4.82%     94.43% # Bytes accessed per row activation
system.mem_ctrls0.bytesPerActivate::640-767          257      1.58%     96.01% # Bytes accessed per row activation
system.mem_ctrls0.bytesPerActivate::768-895          148      0.91%     96.92% # Bytes accessed per row activation
system.mem_ctrls0.bytesPerActivate::896-1023          112      0.69%     97.61% # Bytes accessed per row activation
system.mem_ctrls0.bytesPerActivate::1024-1151          390      2.39%    100.00% # Bytes accessed per row activation
system.mem_ctrls0.bytesPerActivate::total        16291                       # Bytes accessed per row activation
system.mem_ctrls0.rdPerTurnAround::samples         1847                       # Reads before turning the bus around for writes
system.mem_ctrls0.rdPerTurnAround::mean     16.531673                       # Reads before turning the bus around for writes
system.mem_ctrls0.rdPerTurnAround::stdev     7.187095                       # Reads before turning the bus around for writes
system.mem_ctrls0.rdPerTurnAround::0-3            167      9.04%      9.04% # Reads before turning the bus around for writes
system.mem_ctrls0.rdPerTurnAround::4-7             15      0.81%      9.85% # Reads before turning the bus around for writes
system.mem_ctrls0.rdPerTurnAround::8-11            26      1.41%     11.26% # Reads before turning the bus around for writes
system.mem_ctrls0.rdPerTurnAround::12-15           20      1.08%     12.34% # Reads before turning the bus around for writes
system.mem_ctrls0.rdPerTurnAround::16-19         1310     70.93%     83.27% # Reads before turning the bus around for writes
system.mem_ctrls0.rdPerTurnAround::20-23          183      9.91%     93.18% # Reads before turning the bus around for writes
system.mem_ctrls0.rdPerTurnAround::24-27           60      3.25%     96.43% # Reads before turning the bus around for writes
system.mem_ctrls0.rdPerTurnAround::28-31           32      1.73%     98.16% # Reads before turning the bus around for writes
system.mem_ctrls0.rdPerTurnAround::32-35           12      0.65%     98.81% # Reads before turning the bus around for writes
system.mem_ctrls0.rdPerTurnAround::36-39            8      0.43%     99.24% # Reads before turning the bus around for writes
system.mem_ctrls0.rdPerTurnAround::40-43            4      0.22%     99.46% # Reads before turning the bus around for writes
system.mem_ctrls0.rdPerTurnAround::44-47            1      0.05%     99.51% # Reads before turning the bus around for writes
system.mem_ctrls0.rdPerTurnAround::52-55            2      0.11%     99.62% # Reads before turning the bus around for writes
system.mem_ctrls0.rdPerTurnAround::56-59            3      0.16%     99.78% # Reads before turning the bus around for writes
system.mem_ctrls0.rdPerTurnAround::64-67            1      0.05%     99.84% # Reads before turning the bus around for writes
system.mem_ctrls0.rdPerTurnAround::72-75            1      0.05%     99.89% # Reads before turning the bus around for writes
system.mem_ctrls0.rdPerTurnAround::80-83            1      0.05%     99.95% # Reads before turning the bus around for writes
system.mem_ctrls0.rdPerTurnAround::108-111            1      0.05%    100.00% # Reads before turning the bus around for writes
system.mem_ctrls0.rdPerTurnAround::total         1847                       # Reads before turning the bus around for writes
system.mem_ctrls0.wrPerTurnAround::samples         1847                       # Writes before turning the bus around for reads
system.mem_ctrls0.wrPerTurnAround::mean     17.962101                       # Writes before turning the bus around for reads
system.mem_ctrls0.wrPerTurnAround::gmean    17.221204                       # Writes before turning the bus around for reads
system.mem_ctrls0.wrPerTurnAround::stdev     7.424862                       # Writes before turning the bus around for reads
system.mem_ctrls0.wrPerTurnAround::16-17         1651     89.39%     89.39% # Writes before turning the bus around for reads
system.mem_ctrls0.wrPerTurnAround::18-19           24      1.30%     90.69% # Writes before turning the bus around for reads
system.mem_ctrls0.wrPerTurnAround::20-21            6      0.32%     91.01% # Writes before turning the bus around for reads
system.mem_ctrls0.wrPerTurnAround::22-23            8      0.43%     91.45% # Writes before turning the bus around for reads
system.mem_ctrls0.wrPerTurnAround::24-25           18      0.97%     92.42% # Writes before turning the bus around for reads
system.mem_ctrls0.wrPerTurnAround::26-27           15      0.81%     93.23% # Writes before turning the bus around for reads
system.mem_ctrls0.wrPerTurnAround::28-29           14      0.76%     93.99% # Writes before turning the bus around for reads
system.mem_ctrls0.wrPerTurnAround::30-31           16      0.87%     94.86% # Writes before turning the bus around for reads
system.mem_ctrls0.wrPerTurnAround::32-33           20      1.08%     95.94% # Writes before turning the bus around for reads
system.mem_ctrls0.wrPerTurnAround::34-35            8      0.43%     96.37% # Writes before turning the bus around for reads
system.mem_ctrls0.wrPerTurnAround::36-37            6      0.32%     96.70% # Writes before turning the bus around for reads
system.mem_ctrls0.wrPerTurnAround::38-39            5      0.27%     96.97% # Writes before turning the bus around for reads
system.mem_ctrls0.wrPerTurnAround::40-41            9      0.49%     97.46% # Writes before turning the bus around for reads
system.mem_ctrls0.wrPerTurnAround::42-43            7      0.38%     97.83% # Writes before turning the bus around for reads
system.mem_ctrls0.wrPerTurnAround::44-45            4      0.22%     98.05% # Writes before turning the bus around for reads
system.mem_ctrls0.wrPerTurnAround::46-47            2      0.11%     98.16% # Writes before turning the bus around for reads
system.mem_ctrls0.wrPerTurnAround::48-49           10      0.54%     98.70% # Writes before turning the bus around for reads
system.mem_ctrls0.wrPerTurnAround::50-51            1      0.05%     98.75% # Writes before turning the bus around for reads
system.mem_ctrls0.wrPerTurnAround::52-53            2      0.11%     98.86% # Writes before turning the bus around for reads
system.mem_ctrls0.wrPerTurnAround::54-55            3      0.16%     99.03% # Writes before turning the bus around for reads
system.mem_ctrls0.wrPerTurnAround::56-57            4      0.22%     99.24% # Writes before turning the bus around for reads
system.mem_ctrls0.wrPerTurnAround::58-59            1      0.05%     99.30% # Writes before turning the bus around for reads
system.mem_ctrls0.wrPerTurnAround::60-61            2      0.11%     99.40% # Writes before turning the bus around for reads
system.mem_ctrls0.wrPerTurnAround::62-63            1      0.05%     99.46% # Writes before turning the bus around for reads
system.mem_ctrls0.wrPerTurnAround::66-67            1      0.05%     99.51% # Writes before turning the bus around for reads
system.mem_ctrls0.wrPerTurnAround::68-69            4      0.22%     99.73% # Writes before turning the bus around for reads
system.mem_ctrls0.wrPerTurnAround::70-71            1      0.05%     99.78% # Writes before turning the bus around for reads
system.mem_ctrls0.wrPerTurnAround::72-73            1      0.05%     99.84% # Writes before turning the bus around for reads
system.mem_ctrls0.wrPerTurnAround::90-91            1      0.05%     99.89% # Writes before turning the bus around for reads
system.mem_ctrls0.wrPerTurnAround::96-97            1      0.05%     99.95% # Writes before turning the bus around for reads
system.mem_ctrls0.wrPerTurnAround::98-99            1      0.05%    100.00% # Writes before turning the bus around for reads
system.mem_ctrls0.wrPerTurnAround::total         1847                       # Writes before turning the bus around for reads
system.mem_ctrls0.totQLat                  2348954249                       # Total ticks spent queuing
system.mem_ctrls0.totMemAccLat             2921222999                       # Total ticks spent from burst creation until serviced by the DRAM
system.mem_ctrls0.totBusLat                 152605000                       # Total ticks spent in databus transfers
system.mem_ctrls0.avgQLat                    76961.90                       # Average queueing delay per DRAM burst
system.mem_ctrls0.avgBusLat                   5000.00                       # Average bus latency per DRAM burst
system.mem_ctrls0.avgMemAccLat               95711.90                       # Average memory access latency per DRAM burst
system.mem_ctrls0.avgRdBW                        6.05                       # Average DRAM read bandwidth in MiByte/s
system.mem_ctrls0.avgWrBW                        6.58                       # Average achieved write bandwidth in MiByte/s
system.mem_ctrls0.avgRdBWSys                     6.12                       # Average system read bandwidth in MiByte/s
system.mem_ctrls0.avgWrBWSys                     6.60                       # Average system write bandwidth in MiByte/s
system.mem_ctrls0.peakBW                     12800.00                       # Theoretical peak bandwidth in MiByte/s
system.mem_ctrls0.busUtil                        0.10                       # Data bus utilization in percentage
system.mem_ctrls0.busUtilRead                    0.05                       # Data bus utilization in percentage for reads
system.mem_ctrls0.busUtilWrite                   0.05                       # Data bus utilization in percentage for writes
system.mem_ctrls0.avgRdQLen                      1.00                       # Average read queue length when enqueuing
system.mem_ctrls0.avgWrQLen                     25.26                       # Average write queue length when enqueuing
system.mem_ctrls0.readRowHits                   21806                       # Number of row buffer hits during reads
system.mem_ctrls0.writeRowHits                  25600                       # Number of row buffer hits during writes
system.mem_ctrls0.readRowHitRate                71.45                       # Row buffer hit rate for reads
system.mem_ctrls0.writeRowHitRate               77.18                       # Row buffer hit rate for writes
system.mem_ctrls0.avgGap                   5048111.06                       # Average gap between requests
system.mem_ctrls0.pageHitRate                   74.43                       # Row buffer hit rate, read and write combined
system.mem_ctrls0_0.actEnergy                97425300                       # Energy for activate commands per rank (pJ)
system.mem_ctrls0_0.preEnergy                51782775                       # Energy for precharge commands per rank (pJ)
system.mem_ctrls0_0.readEnergy              230300700                       # Energy for read commands per rank (pJ)
system.mem_ctrls0_0.writeEnergy             106425360                       # Energy for write commands per rank (pJ)
system.mem_ctrls0_0.refreshEnergy        9588998640.000002                       # Energy for refresh commands per rank (pJ)
system.mem_ctrls0_0.actBackEnergy          2901834090                       # Energy for active background per rank (pJ)
system.mem_ctrls0_0.preBackEnergy           583707360                       # Energy for precharge background per rank (pJ)
system.mem_ctrls0_0.actPowerDownEnergy    22463334630                       # Energy for active power-down per rank (pJ)
system.mem_ctrls0_0.prePowerDownEnergy    13849763520                       # Energy for precharge power-down per rank (pJ)
system.mem_ctrls0_0.selfRefreshEnergy    1309508919600                       # Energy for self refresh per rank (pJ)
system.mem_ctrls0_0.totalEnergy          1359385522485                       # Total energy per rank (pJ)
system.mem_ctrls0_0.averagePower           245.353093                       # Core power per rank (mW)
system.mem_ctrls0_0.totalIdleTime        319184923500                       # Total Idle time Per DRAM Rank
system.mem_ctrls0_0.memoryStateTime::IDLE    648276500                       # Time in different power states
system.mem_ctrls0_0.memoryStateTime::REF   2110520000                       # Time in different power states
system.mem_ctrls0_0.memoryStateTime::SREF 276114887750                       # Time in different power states
system.mem_ctrls0_0.memoryStateTime::PRE_PDN  18913520000                       # Time in different power states
system.mem_ctrls0_0.memoryStateTime::ACT   1657651250                       # Time in different power states
system.mem_ctrls0_0.memoryStateTime::ACT_PDN  24169719000                       # Time in different power states
system.mem_ctrls0_1.actEnergy                89978280                       # Energy for activate commands per rank (pJ)
system.mem_ctrls0_1.preEnergy                47824590                       # Energy for precharge commands per rank (pJ)
system.mem_ctrls0_1.readEnergy              228387180                       # Energy for read commands per rank (pJ)
system.mem_ctrls0_1.writeEnergy             108508140                       # Energy for write commands per rank (pJ)
system.mem_ctrls0_1.refreshEnergy        8311162080.000002                       # Energy for refresh commands per rank (pJ)
system.mem_ctrls0_1.actBackEnergy          2731394400                       # Energy for active background per rank (pJ)
system.mem_ctrls0_1.preBackEnergy           473591520                       # Energy for precharge background per rank (pJ)
system.mem_ctrls0_1.actPowerDownEnergy    20958130500                       # Energy for active power-down per rank (pJ)
system.mem_ctrls0_1.prePowerDownEnergy    11335861920                       # Energy for precharge power-down per rank (pJ)
system.mem_ctrls0_1.selfRefreshEnergy    1311597977100                       # Energy for self refresh per rank (pJ)
system.mem_ctrls0_1.totalEnergy          1355884655130                       # Total energy per rank (pJ)
system.mem_ctrls0_1.averagePower           244.721228                       # Core power per rank (mW)
system.mem_ctrls0_1.totalIdleTime        321839658750                       # Total Idle time Per DRAM Rank
system.mem_ctrls0_1.memoryStateTime::IDLE    513905750                       # Time in different power states
system.mem_ctrls0_1.memoryStateTime::REF   1915772000                       # Time in different power states
system.mem_ctrls0_1.memoryStateTime::SREF 281786602000                       # Time in different power states
system.mem_ctrls0_1.memoryStateTime::PRE_PDN  16363257000                       # Time in different power states
system.mem_ctrls0_1.memoryStateTime::ACT   1741927000                       # Time in different power states
system.mem_ctrls0_1.memoryStateTime::ACT_PDN  23696550000                       # Time in different power states
system.mem_ctrls1.pwrStateResidencyTicks::UNDEFINED 5540527344500                       # Cumulative time (in ticks) in various power states
system.mem_ctrls1.bytes_read::ruby.dir_cntrl1      1960064                       # Number of bytes read from this memory
system.mem_ctrls1.bytes_read::total           1960064                       # Number of bytes read from this memory
system.mem_ctrls1.bytes_written::ruby.dir_cntrl1      2133568                       # Number of bytes written to this memory
system.mem_ctrls1.bytes_written::total        2133568                       # Number of bytes written to this memory
system.mem_ctrls1.num_reads::ruby.dir_cntrl1        30626                       # Number of read requests responded to by this memory
system.mem_ctrls1.num_reads::total              30626                       # Number of read requests responded to by this memory
system.mem_ctrls1.num_writes::ruby.dir_cntrl1        33337                       # Number of write requests responded to by this memory
system.mem_ctrls1.num_writes::total             33337                       # Number of write requests responded to by this memory
system.mem_ctrls1.bw_read::ruby.dir_cntrl1      6073810                       # Total read bandwidth from this memory (bytes/s)
system.mem_ctrls1.bw_read::total              6073810                       # Total read bandwidth from this memory (bytes/s)
system.mem_ctrls1.bw_write::ruby.dir_cntrl1      6611461                       # Write bandwidth from this memory (bytes/s)
system.mem_ctrls1.bw_write::total             6611461                       # Write bandwidth from this memory (bytes/s)
system.mem_ctrls1.bw_total::ruby.dir_cntrl1     12685270                       # Total bandwidth to/from this memory (bytes/s)
system.mem_ctrls1.bw_total::total            12685270                       # Total bandwidth to/from this memory (bytes/s)
system.mem_ctrls1.readReqs                      30626                       # Number of read requests accepted
system.mem_ctrls1.writeReqs                     33337                       # Number of write requests accepted
system.mem_ctrls1.readBursts                    30626                       # Number of DRAM read bursts, including those serviced by the write queue
system.mem_ctrls1.writeBursts                   33337                       # Number of DRAM write bursts, including those merged in the write queue
system.mem_ctrls1.bytesReadDRAM               1946560                       # Total number of bytes read from DRAM
system.mem_ctrls1.bytesReadWrQ                  13504                       # Total number of bytes read from write queue
system.mem_ctrls1.bytesWritten                2133696                       # Total number of bytes written to DRAM
system.mem_ctrls1.bytesReadSys                1960064                       # Total read bytes from the system interface side
system.mem_ctrls1.bytesWrittenSys             2133568                       # Total written bytes from the system interface side
system.mem_ctrls1.servicedByWrQ                   211                       # Number of DRAM read bursts serviced by the write queue
system.mem_ctrls1.mergedWrBursts                    0                       # Number of DRAM write bursts merged with an existing one
system.mem_ctrls1.neitherReadNorWriteReqs            0                       # Number of requests that are neither read nor write
system.mem_ctrls1.perBankRdBursts::0             1883                       # Per bank write bursts
system.mem_ctrls1.perBankRdBursts::1             1925                       # Per bank write bursts
system.mem_ctrls1.perBankRdBursts::2             1897                       # Per bank write bursts
system.mem_ctrls1.perBankRdBursts::3             1944                       # Per bank write bursts
system.mem_ctrls1.perBankRdBursts::4             1903                       # Per bank write bursts
system.mem_ctrls1.perBankRdBursts::5             1897                       # Per bank write bursts
system.mem_ctrls1.perBankRdBursts::6             1845                       # Per bank write bursts
system.mem_ctrls1.perBankRdBursts::7             1813                       # Per bank write bursts
system.mem_ctrls1.perBankRdBursts::8             1843                       # Per bank write bursts
system.mem_ctrls1.perBankRdBursts::9             1920                       # Per bank write bursts
system.mem_ctrls1.perBankRdBursts::10            1970                       # Per bank write bursts
system.mem_ctrls1.perBankRdBursts::11            1907                       # Per bank write bursts
system.mem_ctrls1.perBankRdBursts::12            1890                       # Per bank write bursts
system.mem_ctrls1.perBankRdBursts::13            1878                       # Per bank write bursts
system.mem_ctrls1.perBankRdBursts::14            1970                       # Per bank write bursts
system.mem_ctrls1.perBankRdBursts::15            1930                       # Per bank write bursts
system.mem_ctrls1.perBankWrBursts::0             2129                       # Per bank write bursts
system.mem_ctrls1.perBankWrBursts::1             1941                       # Per bank write bursts
system.mem_ctrls1.perBankWrBursts::2             2032                       # Per bank write bursts
system.mem_ctrls1.perBankWrBursts::3             2017                       # Per bank write bursts
system.mem_ctrls1.perBankWrBursts::4             1908                       # Per bank write bursts
system.mem_ctrls1.perBankWrBursts::5             2091                       # Per bank write bursts
system.mem_ctrls1.perBankWrBursts::6             1988                       # Per bank write bursts
system.mem_ctrls1.perBankWrBursts::7             2000                       # Per bank write bursts
system.mem_ctrls1.perBankWrBursts::8             2224                       # Per bank write bursts
system.mem_ctrls1.perBankWrBursts::9             2250                       # Per bank write bursts
system.mem_ctrls1.perBankWrBursts::10            2308                       # Per bank write bursts
system.mem_ctrls1.perBankWrBursts::11            2211                       # Per bank write bursts
system.mem_ctrls1.perBankWrBursts::12            2092                       # Per bank write bursts
system.mem_ctrls1.perBankWrBursts::13            2099                       # Per bank write bursts
system.mem_ctrls1.perBankWrBursts::14            2031                       # Per bank write bursts
system.mem_ctrls1.perBankWrBursts::15            2018                       # Per bank write bursts
system.mem_ctrls1.numRdRetry                        0                       # Number of times read queue was full causing retry
system.mem_ctrls1.numWrRetry                       92                       # Number of times write queue was full causing retry
system.mem_ctrls1.totGap                 326003317500                       # Total gap between requests
system.mem_ctrls1.readPktSize::0                    0                       # Read request sizes (log2)
system.mem_ctrls1.readPktSize::1                    0                       # Read request sizes (log2)
system.mem_ctrls1.readPktSize::2                    0                       # Read request sizes (log2)
system.mem_ctrls1.readPktSize::3                    0                       # Read request sizes (log2)
system.mem_ctrls1.readPktSize::4                    0                       # Read request sizes (log2)
system.mem_ctrls1.readPktSize::5                    0                       # Read request sizes (log2)
system.mem_ctrls1.readPktSize::6                30626                       # Read request sizes (log2)
system.mem_ctrls1.writePktSize::0                   0                       # Write request sizes (log2)
system.mem_ctrls1.writePktSize::1                   0                       # Write request sizes (log2)
system.mem_ctrls1.writePktSize::2                   0                       # Write request sizes (log2)
system.mem_ctrls1.writePktSize::3                   0                       # Write request sizes (log2)
system.mem_ctrls1.writePktSize::4                   0                       # Write request sizes (log2)
system.mem_ctrls1.writePktSize::5                   0                       # Write request sizes (log2)
system.mem_ctrls1.writePktSize::6               33337                       # Write request sizes (log2)
system.mem_ctrls1.rdQLenPdf::0                  30415                       # What read queue length does an incoming req see
system.mem_ctrls1.rdQLenPdf::1                      0                       # What read queue length does an incoming req see
system.mem_ctrls1.rdQLenPdf::2                      0                       # What read queue length does an incoming req see
system.mem_ctrls1.rdQLenPdf::3                      0                       # What read queue length does an incoming req see
system.mem_ctrls1.rdQLenPdf::4                      0                       # What read queue length does an incoming req see
system.mem_ctrls1.rdQLenPdf::5                      0                       # What read queue length does an incoming req see
system.mem_ctrls1.rdQLenPdf::6                      0                       # What read queue length does an incoming req see
system.mem_ctrls1.rdQLenPdf::7                      0                       # What read queue length does an incoming req see
system.mem_ctrls1.rdQLenPdf::8                      0                       # What read queue length does an incoming req see
system.mem_ctrls1.rdQLenPdf::9                      0                       # What read queue length does an incoming req see
system.mem_ctrls1.rdQLenPdf::10                     0                       # What read queue length does an incoming req see
system.mem_ctrls1.rdQLenPdf::11                     0                       # What read queue length does an incoming req see
system.mem_ctrls1.rdQLenPdf::12                     0                       # What read queue length does an incoming req see
system.mem_ctrls1.rdQLenPdf::13                     0                       # What read queue length does an incoming req see
system.mem_ctrls1.rdQLenPdf::14                     0                       # What read queue length does an incoming req see
system.mem_ctrls1.rdQLenPdf::15                     0                       # What read queue length does an incoming req see
system.mem_ctrls1.rdQLenPdf::16                     0                       # What read queue length does an incoming req see
system.mem_ctrls1.rdQLenPdf::17                     0                       # What read queue length does an incoming req see
system.mem_ctrls1.rdQLenPdf::18                     0                       # What read queue length does an incoming req see
system.mem_ctrls1.rdQLenPdf::19                     0                       # What read queue length does an incoming req see
system.mem_ctrls1.rdQLenPdf::20                     0                       # What read queue length does an incoming req see
system.mem_ctrls1.rdQLenPdf::21                     0                       # What read queue length does an incoming req see
system.mem_ctrls1.rdQLenPdf::22                     0                       # What read queue length does an incoming req see
system.mem_ctrls1.rdQLenPdf::23                     0                       # What read queue length does an incoming req see
system.mem_ctrls1.rdQLenPdf::24                     0                       # What read queue length does an incoming req see
system.mem_ctrls1.rdQLenPdf::25                     0                       # What read queue length does an incoming req see
system.mem_ctrls1.rdQLenPdf::26                     0                       # What read queue length does an incoming req see
system.mem_ctrls1.rdQLenPdf::27                     0                       # What read queue length does an incoming req see
system.mem_ctrls1.rdQLenPdf::28                     0                       # What read queue length does an incoming req see
system.mem_ctrls1.rdQLenPdf::29                     0                       # What read queue length does an incoming req see
system.mem_ctrls1.rdQLenPdf::30                     0                       # What read queue length does an incoming req see
system.mem_ctrls1.rdQLenPdf::31                     0                       # What read queue length does an incoming req see
system.mem_ctrls1.wrQLenPdf::0                      0                       # What write queue length does an incoming req see
system.mem_ctrls1.wrQLenPdf::1                      0                       # What write queue length does an incoming req see
system.mem_ctrls1.wrQLenPdf::2                      0                       # What write queue length does an incoming req see
system.mem_ctrls1.wrQLenPdf::3                      0                       # What write queue length does an incoming req see
system.mem_ctrls1.wrQLenPdf::4                      0                       # What write queue length does an incoming req see
system.mem_ctrls1.wrQLenPdf::5                      0                       # What write queue length does an incoming req see
system.mem_ctrls1.wrQLenPdf::6                      0                       # What write queue length does an incoming req see
system.mem_ctrls1.wrQLenPdf::7                      0                       # What write queue length does an incoming req see
system.mem_ctrls1.wrQLenPdf::8                      0                       # What write queue length does an incoming req see
system.mem_ctrls1.wrQLenPdf::9                      0                       # What write queue length does an incoming req see
system.mem_ctrls1.wrQLenPdf::10                     0                       # What write queue length does an incoming req see
system.mem_ctrls1.wrQLenPdf::11                     0                       # What write queue length does an incoming req see
system.mem_ctrls1.wrQLenPdf::12                     0                       # What write queue length does an incoming req see
system.mem_ctrls1.wrQLenPdf::13                     0                       # What write queue length does an incoming req see
system.mem_ctrls1.wrQLenPdf::14                     0                       # What write queue length does an incoming req see
system.mem_ctrls1.wrQLenPdf::15                   173                       # What write queue length does an incoming req see
system.mem_ctrls1.wrQLenPdf::16                   228                       # What write queue length does an incoming req see
system.mem_ctrls1.wrQLenPdf::17                  1888                       # What write queue length does an incoming req see
system.mem_ctrls1.wrQLenPdf::18                  1935                       # What write queue length does an incoming req see
system.mem_ctrls1.wrQLenPdf::19                  1954                       # What write queue length does an incoming req see
system.mem_ctrls1.wrQLenPdf::20                  1935                       # What write queue length does an incoming req see
system.mem_ctrls1.wrQLenPdf::21                  1912                       # What write queue length does an incoming req see
system.mem_ctrls1.wrQLenPdf::22                  1954                       # What write queue length does an incoming req see
system.mem_ctrls1.wrQLenPdf::23                  1960                       # What write queue length does an incoming req see
system.mem_ctrls1.wrQLenPdf::24                  1989                       # What write queue length does an incoming req see
system.mem_ctrls1.wrQLenPdf::25                  2036                       # What write queue length does an incoming req see
system.mem_ctrls1.wrQLenPdf::26                  1935                       # What write queue length does an incoming req see
system.mem_ctrls1.wrQLenPdf::27                  1906                       # What write queue length does an incoming req see
system.mem_ctrls1.wrQLenPdf::28                  1917                       # What write queue length does an incoming req see
system.mem_ctrls1.wrQLenPdf::29                  1911                       # What write queue length does an incoming req see
system.mem_ctrls1.wrQLenPdf::30                  1881                       # What write queue length does an incoming req see
system.mem_ctrls1.wrQLenPdf::31                  1864                       # What write queue length does an incoming req see
system.mem_ctrls1.wrQLenPdf::32                  1844                       # What write queue length does an incoming req see
system.mem_ctrls1.wrQLenPdf::33                    78                       # What write queue length does an incoming req see
system.mem_ctrls1.wrQLenPdf::34                    77                       # What write queue length does an incoming req see
system.mem_ctrls1.wrQLenPdf::35                    71                       # What write queue length does an incoming req see
system.mem_ctrls1.wrQLenPdf::36                    67                       # What write queue length does an incoming req see
system.mem_ctrls1.wrQLenPdf::37                    68                       # What write queue length does an incoming req see
system.mem_ctrls1.wrQLenPdf::38                    69                       # What write queue length does an incoming req see
system.mem_ctrls1.wrQLenPdf::39                    69                       # What write queue length does an incoming req see
system.mem_ctrls1.wrQLenPdf::40                    67                       # What write queue length does an incoming req see
system.mem_ctrls1.wrQLenPdf::41                    67                       # What write queue length does an incoming req see
system.mem_ctrls1.wrQLenPdf::42                    65                       # What write queue length does an incoming req see
system.mem_ctrls1.wrQLenPdf::43                    67                       # What write queue length does an incoming req see
system.mem_ctrls1.wrQLenPdf::44                    70                       # What write queue length does an incoming req see
system.mem_ctrls1.wrQLenPdf::45                    66                       # What write queue length does an incoming req see
system.mem_ctrls1.wrQLenPdf::46                    67                       # What write queue length does an incoming req see
system.mem_ctrls1.wrQLenPdf::47                    64                       # What write queue length does an incoming req see
system.mem_ctrls1.wrQLenPdf::48                    64                       # What write queue length does an incoming req see
system.mem_ctrls1.wrQLenPdf::49                    63                       # What write queue length does an incoming req see
system.mem_ctrls1.wrQLenPdf::50                    64                       # What write queue length does an incoming req see
system.mem_ctrls1.wrQLenPdf::51                    59                       # What write queue length does an incoming req see
system.mem_ctrls1.wrQLenPdf::52                    53                       # What write queue length does an incoming req see
system.mem_ctrls1.wrQLenPdf::53                    54                       # What write queue length does an incoming req see
system.mem_ctrls1.wrQLenPdf::54                    53                       # What write queue length does an incoming req see
system.mem_ctrls1.wrQLenPdf::55                    67                       # What write queue length does an incoming req see
system.mem_ctrls1.wrQLenPdf::56                    68                       # What write queue length does an incoming req see
system.mem_ctrls1.wrQLenPdf::57                    76                       # What write queue length does an incoming req see
system.mem_ctrls1.wrQLenPdf::58                    77                       # What write queue length does an incoming req see
system.mem_ctrls1.wrQLenPdf::59                    80                       # What write queue length does an incoming req see
system.mem_ctrls1.wrQLenPdf::60                    51                       # What write queue length does an incoming req see
system.mem_ctrls1.wrQLenPdf::61                    46                       # What write queue length does an incoming req see
system.mem_ctrls1.wrQLenPdf::62                    60                       # What write queue length does an incoming req see
system.mem_ctrls1.wrQLenPdf::63                   148                       # What write queue length does an incoming req see
system.mem_ctrls1.bytesPerActivate::samples        15642                       # Bytes accessed per row activation
system.mem_ctrls1.bytesPerActivate::mean   260.852576                       # Bytes accessed per row activation
system.mem_ctrls1.bytesPerActivate::gmean   184.600708                       # Bytes accessed per row activation
system.mem_ctrls1.bytesPerActivate::stdev   220.772170                       # Bytes accessed per row activation
system.mem_ctrls1.bytesPerActivate::0-127         4671     29.86%     29.86% # Bytes accessed per row activation
system.mem_ctrls1.bytesPerActivate::128-255         3960     25.32%     55.18% # Bytes accessed per row activation
system.mem_ctrls1.bytesPerActivate::256-383         2459     15.72%     70.90% # Bytes accessed per row activation
system.mem_ctrls1.bytesPerActivate::384-511         2446     15.64%     86.54% # Bytes accessed per row activation
system.mem_ctrls1.bytesPerActivate::512-639         1158      7.40%     93.94% # Bytes accessed per row activation
system.mem_ctrls1.bytesPerActivate::640-767          256      1.64%     95.58% # Bytes accessed per row activation
system.mem_ctrls1.bytesPerActivate::768-895          152      0.97%     96.55% # Bytes accessed per row activation
system.mem_ctrls1.bytesPerActivate::896-1023          132      0.84%     97.39% # Bytes accessed per row activation
system.mem_ctrls1.bytesPerActivate::1024-1151          408      2.61%    100.00% # Bytes accessed per row activation
system.mem_ctrls1.bytesPerActivate::total        15642                       # Bytes accessed per row activation
system.mem_ctrls1.rdPerTurnAround::samples         1841                       # Reads before turning the bus around for writes
system.mem_ctrls1.rdPerTurnAround::mean     16.524172                       # Reads before turning the bus around for writes
system.mem_ctrls1.rdPerTurnAround::stdev     6.797665                       # Reads before turning the bus around for writes
system.mem_ctrls1.rdPerTurnAround::0-3            144      7.82%      7.82% # Reads before turning the bus around for writes
system.mem_ctrls1.rdPerTurnAround::4-7             27      1.47%      9.29% # Reads before turning the bus around for writes
system.mem_ctrls1.rdPerTurnAround::8-11            16      0.87%     10.16% # Reads before turning the bus around for writes
system.mem_ctrls1.rdPerTurnAround::12-15           23      1.25%     11.41% # Reads before turning the bus around for writes
system.mem_ctrls1.rdPerTurnAround::16-19         1331     72.30%     83.70% # Reads before turning the bus around for writes
system.mem_ctrls1.rdPerTurnAround::20-23          182      9.89%     93.59% # Reads before turning the bus around for writes
system.mem_ctrls1.rdPerTurnAround::24-27           63      3.42%     97.01% # Reads before turning the bus around for writes
system.mem_ctrls1.rdPerTurnAround::28-31           28      1.52%     98.53% # Reads before turning the bus around for writes
system.mem_ctrls1.rdPerTurnAround::32-35           12      0.65%     99.19% # Reads before turning the bus around for writes
system.mem_ctrls1.rdPerTurnAround::36-39            3      0.16%     99.35% # Reads before turning the bus around for writes
system.mem_ctrls1.rdPerTurnAround::48-51            4      0.22%     99.57% # Reads before turning the bus around for writes
system.mem_ctrls1.rdPerTurnAround::52-55            1      0.05%     99.62% # Reads before turning the bus around for writes
system.mem_ctrls1.rdPerTurnAround::56-59            1      0.05%     99.67% # Reads before turning the bus around for writes
system.mem_ctrls1.rdPerTurnAround::60-63            3      0.16%     99.84% # Reads before turning the bus around for writes
system.mem_ctrls1.rdPerTurnAround::64-67            1      0.05%     99.89% # Reads before turning the bus around for writes
system.mem_ctrls1.rdPerTurnAround::72-75            1      0.05%     99.95% # Reads before turning the bus around for writes
system.mem_ctrls1.rdPerTurnAround::84-87            1      0.05%    100.00% # Reads before turning the bus around for writes
system.mem_ctrls1.rdPerTurnAround::total         1841                       # Reads before turning the bus around for writes
system.mem_ctrls1.wrPerTurnAround::samples         1841                       # Writes before turning the bus around for reads
system.mem_ctrls1.wrPerTurnAround::mean     18.109180                       # Writes before turning the bus around for reads
system.mem_ctrls1.wrPerTurnAround::gmean    17.198445                       # Writes before turning the bus around for reads
system.mem_ctrls1.wrPerTurnAround::stdev     9.031438                       # Writes before turning the bus around for reads
system.mem_ctrls1.wrPerTurnAround::16-17         1665     90.44%     90.44% # Writes before turning the bus around for reads
system.mem_ctrls1.wrPerTurnAround::18-19           25      1.36%     91.80% # Writes before turning the bus around for reads
system.mem_ctrls1.wrPerTurnAround::20-21            6      0.33%     92.12% # Writes before turning the bus around for reads
system.mem_ctrls1.wrPerTurnAround::22-23            4      0.22%     92.34% # Writes before turning the bus around for reads
system.mem_ctrls1.wrPerTurnAround::24-25            8      0.43%     92.78% # Writes before turning the bus around for reads
system.mem_ctrls1.wrPerTurnAround::26-27            5      0.27%     93.05% # Writes before turning the bus around for reads
system.mem_ctrls1.wrPerTurnAround::28-29           24      1.30%     94.35% # Writes before turning the bus around for reads
system.mem_ctrls1.wrPerTurnAround::30-31           11      0.60%     94.95% # Writes before turning the bus around for reads
system.mem_ctrls1.wrPerTurnAround::32-33           18      0.98%     95.93% # Writes before turning the bus around for reads
system.mem_ctrls1.wrPerTurnAround::34-35            5      0.27%     96.20% # Writes before turning the bus around for reads
system.mem_ctrls1.wrPerTurnAround::36-37           14      0.76%     96.96% # Writes before turning the bus around for reads
system.mem_ctrls1.wrPerTurnAround::38-39            3      0.16%     97.12% # Writes before turning the bus around for reads
system.mem_ctrls1.wrPerTurnAround::40-41            4      0.22%     97.34% # Writes before turning the bus around for reads
system.mem_ctrls1.wrPerTurnAround::42-43            1      0.05%     97.39% # Writes before turning the bus around for reads
system.mem_ctrls1.wrPerTurnAround::44-45            3      0.16%     97.56% # Writes before turning the bus around for reads
system.mem_ctrls1.wrPerTurnAround::46-47            2      0.11%     97.66% # Writes before turning the bus around for reads
system.mem_ctrls1.wrPerTurnAround::48-49           12      0.65%     98.32% # Writes before turning the bus around for reads
system.mem_ctrls1.wrPerTurnAround::50-51            2      0.11%     98.42% # Writes before turning the bus around for reads
system.mem_ctrls1.wrPerTurnAround::52-53            3      0.16%     98.59% # Writes before turning the bus around for reads
system.mem_ctrls1.wrPerTurnAround::56-57            4      0.22%     98.80% # Writes before turning the bus around for reads
system.mem_ctrls1.wrPerTurnAround::60-61            2      0.11%     98.91% # Writes before turning the bus around for reads
system.mem_ctrls1.wrPerTurnAround::64-65            1      0.05%     98.97% # Writes before turning the bus around for reads
system.mem_ctrls1.wrPerTurnAround::66-67            2      0.11%     99.08% # Writes before turning the bus around for reads
system.mem_ctrls1.wrPerTurnAround::68-69            1      0.05%     99.13% # Writes before turning the bus around for reads
system.mem_ctrls1.wrPerTurnAround::70-71            1      0.05%     99.19% # Writes before turning the bus around for reads
system.mem_ctrls1.wrPerTurnAround::72-73            1      0.05%     99.24% # Writes before turning the bus around for reads
system.mem_ctrls1.wrPerTurnAround::74-75            1      0.05%     99.29% # Writes before turning the bus around for reads
system.mem_ctrls1.wrPerTurnAround::78-79            1      0.05%     99.35% # Writes before turning the bus around for reads
system.mem_ctrls1.wrPerTurnAround::80-81            2      0.11%     99.46% # Writes before turning the bus around for reads
system.mem_ctrls1.wrPerTurnAround::82-83            1      0.05%     99.51% # Writes before turning the bus around for reads
system.mem_ctrls1.wrPerTurnAround::84-85            1      0.05%     99.57% # Writes before turning the bus around for reads
system.mem_ctrls1.wrPerTurnAround::96-97            4      0.22%     99.78% # Writes before turning the bus around for reads
system.mem_ctrls1.wrPerTurnAround::100-101            1      0.05%     99.84% # Writes before turning the bus around for reads
system.mem_ctrls1.wrPerTurnAround::104-105            1      0.05%     99.89% # Writes before turning the bus around for reads
system.mem_ctrls1.wrPerTurnAround::112-113            1      0.05%     99.95% # Writes before turning the bus around for reads
system.mem_ctrls1.wrPerTurnAround::114-115            1      0.05%    100.00% # Writes before turning the bus around for reads
system.mem_ctrls1.wrPerTurnAround::total         1841                       # Writes before turning the bus around for reads
system.mem_ctrls1.totQLat                  2312591500                       # Total ticks spent queuing
system.mem_ctrls1.totMemAccLat             2882872750                       # Total ticks spent from burst creation until serviced by the DRAM
system.mem_ctrls1.totBusLat                 152075000                       # Total ticks spent in databus transfers
system.mem_ctrls1.avgQLat                    76034.57                       # Average queueing delay per DRAM burst
system.mem_ctrls1.avgBusLat                   5000.00                       # Average bus latency per DRAM burst
system.mem_ctrls1.avgMemAccLat               94784.57                       # Average memory access latency per DRAM burst
system.mem_ctrls1.avgRdBW                        6.03                       # Average DRAM read bandwidth in MiByte/s
system.mem_ctrls1.avgWrBW                        6.61                       # Average achieved write bandwidth in MiByte/s
system.mem_ctrls1.avgRdBWSys                     6.07                       # Average system read bandwidth in MiByte/s
system.mem_ctrls1.avgWrBWSys                     6.61                       # Average system write bandwidth in MiByte/s
system.mem_ctrls1.peakBW                     12800.00                       # Theoretical peak bandwidth in MiByte/s
system.mem_ctrls1.busUtil                        0.10                       # Data bus utilization in percentage
system.mem_ctrls1.busUtilRead                    0.05                       # Data bus utilization in percentage for reads
system.mem_ctrls1.busUtilWrite                   0.05                       # Data bus utilization in percentage for writes
system.mem_ctrls1.avgRdQLen                      1.00                       # Average read queue length when enqueuing
system.mem_ctrls1.avgWrQLen                     25.07                       # Average write queue length when enqueuing
system.mem_ctrls1.readRowHits                   22323                       # Number of row buffer hits during reads
system.mem_ctrls1.writeRowHits                  25789                       # Number of row buffer hits during writes
system.mem_ctrls1.readRowHitRate                73.39                       # Row buffer hit rate for reads
system.mem_ctrls1.writeRowHitRate               77.36                       # Row buffer hit rate for writes
system.mem_ctrls1.avgGap                   5096748.39                       # Average gap between requests
system.mem_ctrls1.pageHitRate                   75.47                       # Row buffer hit rate, read and write combined
system.mem_ctrls1_0.actEnergy                93576840                       # Energy for activate commands per rank (pJ)
system.mem_ctrls1_0.preEnergy                49737270                       # Energy for precharge commands per rank (pJ)
system.mem_ctrls1_0.readEnergy              229236840                       # Energy for read commands per rank (pJ)
system.mem_ctrls1_0.writeEnergy             106300080                       # Energy for write commands per rank (pJ)
system.mem_ctrls1_0.refreshEnergy        9168584880.000002                       # Energy for refresh commands per rank (pJ)
system.mem_ctrls1_0.actBackEnergy          2839116990                       # Energy for active background per rank (pJ)
system.mem_ctrls1_0.preBackEnergy           594827040                       # Energy for precharge background per rank (pJ)
system.mem_ctrls1_0.actPowerDownEnergy    21088122990                       # Energy for active power-down per rank (pJ)
system.mem_ctrls1_0.prePowerDownEnergy    13277848800                       # Energy for precharge power-down per rank (pJ)
system.mem_ctrls1_0.selfRefreshEnergy    1310561867340                       # Energy for self refresh per rank (pJ)
system.mem_ctrls1_0.totalEnergy          1358011583760                       # Total energy per rank (pJ)
system.mem_ctrls1_0.averagePower           245.105114                       # Core power per rank (mW)
system.mem_ctrls1_0.totalIdleTime        321668114000                       # Total Idle time Per DRAM Rank
system.mem_ctrls1_0.memoryStateTime::IDLE    696900250                       # Time in different power states
system.mem_ctrls1_0.memoryStateTime::REF   2000476000                       # Time in different power states
system.mem_ctrls1_0.memoryStateTime::SREF 281740233250                       # Time in different power states
system.mem_ctrls1_0.memoryStateTime::PRE_PDN  18293917750                       # Time in different power states
system.mem_ctrls1_0.memoryStateTime::ACT   1640401000                       # Time in different power states
system.mem_ctrls1_0.memoryStateTime::ACT_PDN  21857703750                       # Time in different power states
system.mem_ctrls1_1.actEnergy                87207960                       # Energy for activate commands per rank (pJ)
system.mem_ctrls1_1.preEnergy                46352130                       # Energy for precharge commands per rank (pJ)
system.mem_ctrls1_1.readEnergy              228901260                       # Energy for read commands per rank (pJ)
system.mem_ctrls1_1.writeEnergy             109066680                       # Energy for write commands per rank (pJ)
system.mem_ctrls1_1.refreshEnergy        8317308480.000002                       # Energy for refresh commands per rank (pJ)
system.mem_ctrls1_1.actBackEnergy          2780035920                       # Energy for active background per rank (pJ)
system.mem_ctrls1_1.preBackEnergy           489582720                       # Energy for precharge background per rank (pJ)
system.mem_ctrls1_1.actPowerDownEnergy    20187896340                       # Energy for active power-down per rank (pJ)
system.mem_ctrls1_1.prePowerDownEnergy    11520765120                       # Energy for precharge power-down per rank (pJ)
system.mem_ctrls1_1.selfRefreshEnergy    1311938729550                       # Energy for self refresh per rank (pJ)
system.mem_ctrls1_1.totalEnergy          1355707203660                       # Total energy per rank (pJ)
system.mem_ctrls1_1.averagePower           244.689200                       # Core power per rank (mW)
system.mem_ctrls1_1.totalIdleTime        321676354250                       # Total Idle time Per DRAM Rank
system.mem_ctrls1_1.memoryStateTime::IDLE    559237750                       # Time in different power states
system.mem_ctrls1_1.memoryStateTime::REF   1925416000                       # Time in different power states
system.mem_ctrls1_1.memoryStateTime::SREF 282585206750                       # Time in different power states
system.mem_ctrls1_1.memoryStateTime::PRE_PDN  17100833250                       # Time in different power states
system.mem_ctrls1_1.memoryStateTime::ACT   1841181250                       # Time in different power states
system.mem_ctrls1_1.memoryStateTime::ACT_PDN  21996439000                       # Time in different power states
system.mem_ctrls2.pwrStateResidencyTicks::UNDEFINED 5540527344500                       # Cumulative time (in ticks) in various power states
system.mem_ctrls2.bytes_read::ruby.dir_cntrl2      1957568                       # Number of bytes read from this memory
system.mem_ctrls2.bytes_read::total           1957568                       # Number of bytes read from this memory
system.mem_ctrls2.bytes_written::ruby.dir_cntrl2      2119104                       # Number of bytes written to this memory
system.mem_ctrls2.bytes_written::total        2119104                       # Number of bytes written to this memory
system.mem_ctrls2.num_reads::ruby.dir_cntrl2        30587                       # Number of read requests responded to by this memory
system.mem_ctrls2.num_reads::total              30587                       # Number of read requests responded to by this memory
system.mem_ctrls2.num_writes::ruby.dir_cntrl2        33111                       # Number of write requests responded to by this memory
system.mem_ctrls2.num_writes::total             33111                       # Number of write requests responded to by this memory
system.mem_ctrls2.bw_read::ruby.dir_cntrl2      6066075                       # Total read bandwidth from this memory (bytes/s)
system.mem_ctrls2.bw_read::total              6066075                       # Total read bandwidth from this memory (bytes/s)
system.mem_ctrls2.bw_write::ruby.dir_cntrl2      6566640                       # Write bandwidth from this memory (bytes/s)
system.mem_ctrls2.bw_write::total             6566640                       # Write bandwidth from this memory (bytes/s)
system.mem_ctrls2.bw_total::ruby.dir_cntrl2     12632715                       # Total bandwidth to/from this memory (bytes/s)
system.mem_ctrls2.bw_total::total            12632715                       # Total bandwidth to/from this memory (bytes/s)
system.mem_ctrls2.readReqs                      30587                       # Number of read requests accepted
system.mem_ctrls2.writeReqs                     33111                       # Number of write requests accepted
system.mem_ctrls2.readBursts                    30587                       # Number of DRAM read bursts, including those serviced by the write queue
system.mem_ctrls2.writeBursts                   33111                       # Number of DRAM write bursts, including those merged in the write queue
system.mem_ctrls2.bytesReadDRAM               1945152                       # Total number of bytes read from DRAM
system.mem_ctrls2.bytesReadWrQ                  12416                       # Total number of bytes read from write queue
system.mem_ctrls2.bytesWritten                2119040                       # Total number of bytes written to DRAM
system.mem_ctrls2.bytesReadSys                1957568                       # Total read bytes from the system interface side
system.mem_ctrls2.bytesWrittenSys             2119104                       # Total written bytes from the system interface side
system.mem_ctrls2.servicedByWrQ                   194                       # Number of DRAM read bursts serviced by the write queue
system.mem_ctrls2.mergedWrBursts                    0                       # Number of DRAM write bursts merged with an existing one
system.mem_ctrls2.neitherReadNorWriteReqs            0                       # Number of requests that are neither read nor write
system.mem_ctrls2.perBankRdBursts::0             1886                       # Per bank write bursts
system.mem_ctrls2.perBankRdBursts::1             1918                       # Per bank write bursts
system.mem_ctrls2.perBankRdBursts::2             1895                       # Per bank write bursts
system.mem_ctrls2.perBankRdBursts::3             1940                       # Per bank write bursts
system.mem_ctrls2.perBankRdBursts::4             1904                       # Per bank write bursts
system.mem_ctrls2.perBankRdBursts::5             1907                       # Per bank write bursts
system.mem_ctrls2.perBankRdBursts::6             1843                       # Per bank write bursts
system.mem_ctrls2.perBankRdBursts::7             1820                       # Per bank write bursts
system.mem_ctrls2.perBankRdBursts::8             1834                       # Per bank write bursts
system.mem_ctrls2.perBankRdBursts::9             1929                       # Per bank write bursts
system.mem_ctrls2.perBankRdBursts::10            1955                       # Per bank write bursts
system.mem_ctrls2.perBankRdBursts::11            1909                       # Per bank write bursts
system.mem_ctrls2.perBankRdBursts::12            1887                       # Per bank write bursts
system.mem_ctrls2.perBankRdBursts::13            1870                       # Per bank write bursts
system.mem_ctrls2.perBankRdBursts::14            1966                       # Per bank write bursts
system.mem_ctrls2.perBankRdBursts::15            1930                       # Per bank write bursts
[...]
system.ruby.L1Cache_Controller.IS.Data_all_Acks::total       489520                      
system.ruby.L1Cache_Controller.IM.Data_all_Acks |      471884    100.00%    100.00% |           0      0.00%    100.00% |           0      0.00%    100.00% |           0      0.00%    100.00% |           0      0.00%    100.00% |           0      0.00%    100.00% |           0      0.00%    100.00% |           0      0.00%    100.00%
system.ruby.L1Cache_Controller.IM.Data_all_Acks::total       471884                      
system.ruby.L1Cache_Controller.M_I.Ifetch |           7    100.00%    100.00% |           0      0.00%    100.00% |           0      0.00%    100.00% |           0      0.00%    100.00% |           0      0.00%    100.00% |           0      0.00%    100.00% |           0      0.00%    100.00% |           0      0.00%    100.00%
system.ruby.L1Cache_Controller.M_I.Ifetch::total            7                      
system.ruby.L1Cache_Controller.M_I.WB_Ack |     1036662    100.00%    100.00% |           0      0.00%    100.00% |           0      0.00%    100.00% |           0      0.00%    100.00% |           0      0.00%    100.00% |           0      0.00%    100.00% |           0      0.00%    100.00% |           0      0.00%    100.00%
system.ruby.L1Cache_Controller.M_I.WB_Ack::total      1036662                      
system.ruby.L1Cache_Controller.PF_IS.Load |         518    100.00%    100.00% |           0      0.00%    100.00% |           0      0.00%    100.00% |           0      0.00%    100.00% |           0      0.00%    100.00% |           0      0.00%    100.00% |           0      0.00%    100.00% |           0      0.00%    100.00%
system.ruby.L1Cache_Controller.PF_IS.Load::total          518                      
system.ruby.L1Cache_Controller.PF_IS.Ifetch |          46    100.00%    100.00% |           0      0.00%    100.00% |           0      0.00%    100.00% |           0      0.00%    100.00% |           0      0.00%    100.00% |           0      0.00%    100.00% |           0      0.00%    100.00% |           0      0.00%    100.00%
system.ruby.L1Cache_Controller.PF_IS.Ifetch::total           46                      
system.ruby.L1Cache_Controller.PF_IS.Data_Exclusive |       34341    100.00%    100.00% |           0      0.00%    100.00% |           0      0.00%    100.00% |           0      0.00%    100.00% |           0      0.00%    100.00% |           0      0.00%    100.00% |           0      0.00%    100.00% |           0      0.00%    100.00%
system.ruby.L1Cache_Controller.PF_IS.Data_Exclusive::total        34341                      
system.ruby.L1Cache_Controller.PF_IS.Data_all_Acks |        7386    100.00%    100.00% |           0      0.00%    100.00% |           0      0.00%    100.00% |           0      0.00%    100.00% |           0      0.00%    100.00% |           0      0.00%    100.00% |           0      0.00%    100.00% |           0      0.00%    100.00%
system.ruby.L1Cache_Controller.PF_IS.Data_all_Acks::total         7386                      
system.ruby.L1Cache_Controller.PF_IS.PF_Load |           1    100.00%    100.00% |           0      0.00%    100.00% |           0      0.00%    100.00% |           0      0.00%    100.00% |           0      0.00%    100.00% |           0      0.00%    100.00% |           0      0.00%    100.00% |           0      0.00%    100.00%
system.ruby.L1Cache_Controller.PF_IS.PF_Load::total            1                      
system.ruby.L1Cache_Controller.PF_IM.Store |        3608    100.00%    100.00% |           0      0.00%    100.00% |           0      0.00%    100.00% |           0      0.00%    100.00% |           0      0.00%    100.00% |           0      0.00%    100.00% |           0      0.00%    100.00% |           0      0.00%    100.00%
system.ruby.L1Cache_Controller.PF_IM.Store::total         3608                      
system.ruby.L1Cache_Controller.PF_IM.Data_all_Acks |       69914    100.00%    100.00% |           0      0.00%    100.00% |           0      0.00%    100.00% |           0      0.00%    100.00% |           0      0.00%    100.00% |           0      0.00%    100.00% |           0      0.00%    100.00% |           0      0.00%    100.00%
system.ruby.L1Cache_Controller.PF_IM.Data_all_Acks::total        69914                      
system.ruby.L1Cache_Controller.PF_IM.PF_Store |           4    100.00%    100.00% |           0      0.00%    100.00% |           0      0.00%    100.00% |           0      0.00%    100.00% |           0      0.00%    100.00% |           0      0.00%    100.00% |           0      0.00%    100.00% |           0      0.00%    100.00%
system.ruby.L1Cache_Controller.PF_IM.PF_Store::total            4                      
system.ruby.L2Cache_Controller.L1_GET_INSTR |       64183     12.92%     12.92% |       63720     12.83%     25.75% |       60078     12.09%     37.84% |       65573     13.20%     51.04% |       57621     11.60%     62.64% |       63416     12.77%     75.40% |       65051     13.09%     88.50% |       57144     11.50%    100.00%
system.ruby.L2Cache_Controller.L1_GET_INSTR::total       496786                      
system.ruby.L2Cache_Controller.L1_GETS   |       78259     15.80%     15.80% |       60882     12.29%     28.10% |       61544     12.43%     40.53% |       59866     12.09%     52.62% |       57943     11.70%     64.32% |       58184     11.75%     76.07% |       56743     11.46%     87.53% |       61761     12.47%    100.00%
system.ruby.L2Cache_Controller.L1_GETS::total       495182                      
system.ruby.L2Cache_Controller.L1_GETX   |       68905     12.72%     12.72% |       66609     12.29%     25.01% |       68290     12.60%     37.62% |       66009     12.18%     49.80% |       65382     12.07%     61.87% |       68587     12.66%     74.53% |       72028     13.29%     87.82% |       65988     12.18%    100.00%
system.ruby.L2Cache_Controller.L1_GETX::total       541798                      
system.ruby.L2Cache_Controller.L1_PUTX   |      146982     14.18%     14.18% |      127487     12.30%     26.48% |      129753     12.52%     38.99% |      125845     12.14%     51.13% |      123320     11.90%     63.03% |      126767     12.23%     75.26% |      128764     12.42%     87.68% |      127744     12.32%    100.00%
system.ruby.L2Cache_Controller.L1_PUTX::total      1036662                      
system.ruby.L2Cache_Controller.L2_Replacement |       26540     12.46%     12.46% |       26801     12.58%     25.04% |       26575     12.48%     37.52% |       26847     12.60%     50.12% |       26597     12.49%     62.61% |       26712     12.54%     75.15% |       26401     12.39%     87.54% |       26534     12.46%    100.00%
system.ruby.L2Cache_Controller.L2_Replacement::total       213007                      
system.ruby.L2Cache_Controller.L2_Replacement_clean |        2547     13.10%     13.10% |        2471     12.71%     25.80% |        2440     12.55%     38.35% |        2343     12.05%     50.40% |        2399     12.34%     62.73% |        2388     12.28%     75.01% |        2425     12.47%     87.48% |        2435     12.52%    100.00%
system.ruby.L2Cache_Controller.L2_Replacement_clean::total        19448                      
system.ruby.L2Cache_Controller.Mem_Data  |       30776     12.57%     12.57% |       30626     12.51%     25.08% |       30587     12.49%     37.57% |       30583     12.49%     50.06% |       30550     12.48%     62.54% |       30565     12.48%     75.03% |       30581     12.49%     87.52% |       30560     12.48%    100.00%
system.ruby.L2Cache_Controller.Mem_Data::total       244828                      
system.ruby.L2Cache_Controller.Mem_Ack   |       29421     12.58%     12.58% |       29426     12.58%     25.17% |       29162     12.47%     37.64% |       29338     12.55%     50.18% |       29144     12.46%     62.65% |       29248     12.51%     75.16% |       28975     12.39%     87.55% |       29119     12.45%    100.00%
system.ruby.L2Cache_Controller.Mem_Ack::total       233833                      
system.ruby.L2Cache_Controller.WB_Data   |         180    100.00%    100.00% |           0      0.00%    100.00% |           0      0.00%    100.00% |           0      0.00%    100.00% |           0      0.00%    100.00% |           0      0.00%    100.00% |           0      0.00%    100.00% |           0      0.00%    100.00%
system.ruby.L2Cache_Controller.WB_Data::total          180                      
system.ruby.L2Cache_Controller.Ack_all   |         810     12.87%     12.87% |         822     13.06%     25.94% |         775     12.32%     38.25% |         733     11.65%     49.90% |         760     12.08%     61.98% |         784     12.46%     74.44% |         791     12.57%     87.02% |         817     12.98%    100.00%
system.ruby.L2Cache_Controller.Ack_all::total         6292                      
system.ruby.L2Cache_Controller.Exclusive_Unblock |      147164     14.19%     14.19% |      127489     12.30%     26.49% |      129755     12.51%     39.00% |      125847     12.14%     51.14% |      123324     11.89%     63.03% |      126768     12.23%     75.26% |      128765     12.42%     87.68% |      127748     12.32%    100.00%
system.ruby.L2Cache_Controller.Exclusive_Unblock::total      1036860                      
system.ruby.L2Cache_Controller.MEM_Inv   |         668     24.24%     24.24% |         308     11.18%     35.41% |         294     10.67%     46.08% |         296     10.74%     56.82% |         296     10.74%     67.56% |         296     10.74%     78.30% |         298     10.81%     89.11% |         300     10.89%    100.00%
system.ruby.L2Cache_Controller.MEM_Inv::total         2756                      
system.ruby.L2Cache_Controller.NP.L1_GET_INSTR |         383     12.33%     12.33% |         395     12.72%     25.05% |         397     12.78%     37.83% |         379     12.20%     50.03% |         370     11.91%     61.94% |         381     12.27%     74.21% |         399     12.85%     87.06% |         402     12.94%    100.00%
system.ruby.L2Cache_Controller.NP.L1_GET_INSTR::total         3106                      
system.ruby.L2Cache_Controller.NP.L1_GETS |        3656     12.83%     12.83% |        3557     12.48%     25.31% |        3535     12.41%     37.72% |        3604     12.65%     50.37% |        3520     12.35%     62.72% |        3589     12.60%     75.32% |        3571     12.53%     87.85% |        3462     12.15%    100.00%
system.ruby.L2Cache_Controller.NP.L1_GETS::total        28494                      
system.ruby.L2Cache_Controller.NP.L1_GETX |       26737     12.54%     12.54% |       26674     12.51%     25.05% |       26655     12.50%     37.55% |       26600     12.47%     50.02% |       26660     12.50%     62.53% |       26595     12.47%     75.00% |       26611     12.48%     87.48% |       26696     12.52%    100.00%
system.ruby.L2Cache_Controller.NP.L1_GETX::total       213228                      
system.ruby.L2Cache_Controller.SS.L1_GET_INSTR |       63799     12.92%     12.92% |       63324     12.83%     25.75% |       59678     12.09%     37.84% |       65194     13.21%     51.05% |       57250     11.60%     62.64% |       63032     12.77%     75.41% |       64650     13.10%     88.51% |       56742     11.49%    100.00%
system.ruby.L2Cache_Controller.SS.L1_GET_INSTR::total       493669                      
system.ruby.L2Cache_Controller.SS.L1_GETS |           0      0.00%      0.00% |           2      1.67%      1.67% |          79     65.83%     67.50% |          28     23.33%     90.83% |           1      0.83%     91.67% |           3      2.50%     94.17% |           6      5.00%     99.17% |           1      0.83%    100.00%
system.ruby.L2Cache_Controller.SS.L1_GETS::total          120                      
system.ruby.L2Cache_Controller.SS.L2_Replacement_clean |         808     12.87%     12.87% |         821     13.08%     25.96% |         774     12.33%     38.29% |         731     11.65%     49.94% |         756     12.05%     61.98% |         783     12.48%     74.46% |         790     12.59%     87.05% |         813     12.95%    100.00%
system.ruby.L2Cache_Controller.SS.L2_Replacement_clean::total         6276                      
system.ruby.L2Cache_Controller.M.L1_GET_INSTR |           1      9.09%      9.09% |           1      9.09%     18.18% |           3     27.27%     45.45% |           0      0.00%     45.45% |           1      9.09%     54.55% |           3     27.27%     81.82% |           2     18.18%    100.00% |           0      0.00%    100.00%
system.ruby.L2Cache_Controller.M.L1_GET_INSTR::total           11                      
system.ruby.L2Cache_Controller.M.L1_GETS |       74603     15.99%     15.99% |       57323     12.29%     28.28% |       57930     12.42%     40.69% |       56234     12.05%     52.74% |       54422     11.66%     64.41% |       54592     11.70%     76.11% |       53166     11.40%     87.50% |       58298     12.50%    100.00%
system.ruby.L2Cache_Controller.M.L1_GETS::total       466568                      
system.ruby.L2Cache_Controller.M.L1_GETX |       42168     12.83%     12.83% |       39935     12.15%     24.99% |       41635     12.67%     37.66% |       39409     11.99%     49.65% |       38722     11.79%     61.44% |       41992     12.78%     74.22% |       45417     13.82%     88.04% |       39292     11.96%    100.00%
system.ruby.L2Cache_Controller.M.L1_GETX::total       328570                      
system.ruby.L2Cache_Controller.M.L2_Replacement |       26540     12.46%     12.46% |       26801     12.58%     25.04% |       26575     12.48%     37.52% |       26847     12.60%     50.12% |       26597     12.49%     62.61% |       26712     12.54%     75.15% |       26401     12.39%     87.54% |       26534     12.46%    100.00%
system.ruby.L2Cache_Controller.M.L2_Replacement::total       213007                      
system.ruby.L2Cache_Controller.M.L2_Replacement_clean |        1739     13.20%     13.20% |        1650     12.53%     25.73% |        1666     12.65%     38.38% |        1612     12.24%     50.61% |        1643     12.47%     63.09% |        1605     12.18%     75.27% |        1635     12.41%     87.69% |        1622     12.31%    100.00%
system.ruby.L2Cache_Controller.M.L2_Replacement_clean::total        13172                      
system.ruby.L2Cache_Controller.M.MEM_Inv |         152     12.86%     12.86% |         153     12.94%     25.80% |         146     12.35%     38.16% |         146     12.35%     50.51% |         144     12.18%     62.69% |         147     12.44%     75.13% |         148     12.52%     87.65% |         146     12.35%    100.00%
system.ruby.L2Cache_Controller.M.MEM_Inv::total         1182                      
system.ruby.L2Cache_Controller.MT.L1_PUTX |      146982     14.18%     14.18% |      127487     12.30%     26.48% |      129753     12.52%     38.99% |      125845     12.14%     51.13% |      123320     11.90%     63.03% |      126767     12.23%     75.26% |      128764     12.42%     87.68% |      127744     12.32%    100.00%
system.ruby.L2Cache_Controller.MT.L1_PUTX::total      1036662                      
system.ruby.L2Cache_Controller.MT.MEM_Inv |         182     92.86%     92.86% |           1      0.51%     93.37% |           1      0.51%     93.88% |           2      1.02%     94.90% |           4      2.04%     96.94% |           1      0.51%     97.45% |           1      0.51%     97.96% |           4      2.04%    100.00%
system.ruby.L2Cache_Controller.MT.MEM_Inv::total          196                      
system.ruby.L2Cache_Controller.M_I.Mem_Ack |       29421     12.58%     12.58% |       29426     12.58%     25.17% |       29162     12.47%     37.64% |       29338     12.55%     50.18% |       29144     12.46%     62.65% |       29248     12.51%     75.16% |       28975     12.39%     87.55% |       29119     12.45%    100.00%
system.ruby.L2Cache_Controller.M_I.Mem_Ack::total       233833                      
system.ruby.L2Cache_Controller.M_I.MEM_Inv |         152     12.86%     12.86% |         153     12.94%     25.80% |         146     12.35%     38.16% |         146     12.35%     50.51% |         144     12.18%     62.69% |         147     12.44%     75.13% |         148     12.52%     87.65% |         146     12.35%    100.00%
system.ruby.L2Cache_Controller.M_I.MEM_Inv::total         1182                      
system.ruby.L2Cache_Controller.MT_I.WB_Data |         180    100.00%    100.00% |           0      0.00%    100.00% |           0      0.00%    100.00% |           0      0.00%    100.00% |           0      0.00%    100.00% |           0      0.00%    100.00% |           0      0.00%    100.00% |           0      0.00%    100.00%
system.ruby.L2Cache_Controller.MT_I.WB_Data::total          180                      
system.ruby.L2Cache_Controller.MT_I.Ack_all |           2     12.50%     12.50% |           1      6.25%     18.75% |           1      6.25%     25.00% |           2     12.50%     37.50% |           4     25.00%     62.50% |           1      6.25%     68.75% |           1      6.25%     75.00% |           4     25.00%    100.00%
system.ruby.L2Cache_Controller.MT_I.Ack_all::total           16                      
system.ruby.L2Cache_Controller.MT_I.MEM_Inv |         182     92.86%     92.86% |           1      0.51%     93.37% |           1      0.51%     93.88% |           2      1.02%     94.90% |           4      2.04%     96.94% |           1      0.51%     97.45% |           1      0.51%     97.96% |           4      2.04%    100.00%
system.ruby.L2Cache_Controller.MT_I.MEM_Inv::total          196                      
system.ruby.L2Cache_Controller.I_I.Ack_all |         808     12.87%     12.87% |         821     13.08%     25.96% |         774     12.33%     38.29% |         731     11.65%     49.94% |         756     12.05%     61.98% |         783     12.48%     74.46% |         790     12.59%     87.05% |         813     12.95%    100.00%
system.ruby.L2Cache_Controller.I_I.Ack_all::total         6276                      
system.ruby.L2Cache_Controller.ISS.Mem_Data |        3656     12.83%     12.83% |        3557     12.48%     25.31% |        3535     12.41%     37.72% |        3604     12.65%     50.37% |        3520     12.35%     62.72% |        3589     12.60%     75.32% |        3571     12.53%     87.85% |        3462     12.15%    100.00%
system.ruby.L2Cache_Controller.ISS.Mem_Data::total        28494                      
system.ruby.L2Cache_Controller.IS.Mem_Data |         383     12.33%     12.33% |         395     12.72%     25.05% |         397     12.78%     37.83% |         379     12.20%     50.03% |         370     11.91%     61.94% |         381     12.27%     74.21% |         399     12.85%     87.06% |         402     12.94%    100.00%
system.ruby.L2Cache_Controller.IS.Mem_Data::total         3106                      
system.ruby.L2Cache_Controller.IM.Mem_Data |       26737     12.54%     12.54% |       26674     12.51%     25.05% |       26655     12.50%     37.55% |       26600     12.47%     50.02% |       26660     12.50%     62.53% |       26595     12.47%     75.00% |       26611     12.48%     87.48% |       26696     12.52%    100.00%
system.ruby.L2Cache_Controller.IM.Mem_Data::total       213228                      
system.ruby.L2Cache_Controller.MT_MB.Exclusive_Unblock |      147164     14.19%     14.19% |      127489     12.30%     26.49% |      129755     12.51%     39.00% |      125847     12.14%     51.14% |      123324     11.89%     63.03% |      126768     12.23%     75.26% |      128765     12.42%     87.68% |      127748     12.32%    100.00%
system.ruby.L2Cache_Controller.MT_MB.Exclusive_Unblock::total      1036860                      

---------- End Simulation Statistics   ----------
