
---------- Begin Simulation Statistics ----------
sim_seconds                                  0.329045                       # Number of seconds simulated
sim_ticks                                329045138500                       # Number of ticks simulated
final_tick                               5557441302500                       # Number of ticks from beginning of simulation (restored from checkpoints and never reset)
sim_freq                                 1000000000000                       # Frequency of simulated ticks
host_inst_rate                                 842834                       # Simulator instruction rate (inst/s)
host_op_rate                                  1555472                       # Simulator op (including micro ops) rate (op/s)
host_tick_rate                              924434986                       # Simulator tick rate (ticks/s)
host_mem_usage                                5006660                       # Number of bytes of host memory used
host_seconds                                   355.94                       # Real time elapsed on the host
sim_insts                                   300000000                       # Number of instructions simulated
sim_ops                                     553657606                       # Number of ops (including micro ops) simulated
system.voltage_domain.voltage                       1                       # Voltage in Volts
system.clk_domain.clock                          1000                       # Clock period in ticks
system.mem_ctrls0.pwrStateResidencyTicks::UNDEFINED 5557441302500                       # Cumulative time (in ticks) in various power states
system.mem_ctrls0.bytes_read::ruby.dir_cntrl0       371584                       # Number of bytes read from this memory
system.mem_ctrls0.bytes_read::total            371584                       # Number of bytes read from this memory
system.mem_ctrls0.bytes_written::ruby.dir_cntrl0       491328                       # Number of bytes written to this memory
system.mem_ctrls0.bytes_written::total         491328                       # Number of bytes written to this memory
system.mem_ctrls0.num_reads::ruby.dir_cntrl0         5806                       # Number of read requests responded to by this memory
system.mem_ctrls0.num_reads::total               5806                       # Number of read requests responded to by this memory
system.mem_ctrls0.num_writes::ruby.dir_cntrl0         7677                       # Number of write requests responded to by this memory
system.mem_ctrls0.num_writes::total              7677                       # Number of write requests responded to by this memory
system.mem_ctrls0.bw_read::ruby.dir_cntrl0      1129280                       # Total read bandwidth from this memory (bytes/s)
system.mem_ctrls0.bw_read::total              1129280                       # Total read bandwidth from this memory (bytes/s)
system.mem_ctrls0.bw_write::ruby.dir_cntrl0      1493193                       # Write bandwidth from this memory (bytes/s)
system.mem_ctrls0.bw_write::total             1493193                       # Write bandwidth from this memory (bytes/s)
system.mem_ctrls0.bw_total::ruby.dir_cntrl0      2622473                       # Total bandwidth to/from this memory (bytes/s)
system.mem_ctrls0.bw_total::total             2622473                       # Total bandwidth to/from this memory (bytes/s)
system.mem_ctrls0.readReqs                       5806                       # Number of read requests accepted
system.mem_ctrls0.writeReqs                      7677                       # Number of write requests accepted
system.mem_ctrls0.readBursts                     5806                       # Number of DRAM read bursts, including those serviced by the write queue
system.mem_ctrls0.writeBursts                    7677                       # Number of DRAM write bursts, including those merged in the write queue
system.mem_ctrls0.bytesReadDRAM                354880                       # Total number of bytes read from DRAM
system.mem_ctrls0.bytesReadWrQ                  16704                       # Total number of bytes read from write queue
system.mem_ctrls0.bytesWritten                 487424                       # Total number of bytes written to DRAM
system.mem_ctrls0.bytesReadSys                 371584                       # Total read bytes from the system interface side
system.mem_ctrls0.bytesWrittenSys              491328                       # Total written bytes from the system interface side
system.mem_ctrls0.servicedByWrQ                   261                       # Number of DRAM read bursts serviced by the write queue
system.mem_ctrls0.mergedWrBursts                   66                       # Number of DRAM write bursts merged with an existing one
system.mem_ctrls0.neitherReadNorWriteReqs            0                       # Number of requests that are neither read nor write
system.mem_ctrls0.perBankRdBursts::0              370                       # Per bank write bursts
system.mem_ctrls0.perBankRdBursts::1              366                       # Per bank write bursts
system.mem_ctrls0.perBankRdBursts::2              323                       # Per bank write bursts
system.mem_ctrls0.perBankRdBursts::3              405                       # Per bank write bursts
system.mem_ctrls0.perBankRdBursts::4              358                       # Per bank write bursts
system.mem_ctrls0.perBankRdBursts::5              281                       # Per bank write bursts
system.mem_ctrls0.perBankRdBursts::6              323                       # Per bank write bursts
system.mem_ctrls0.perBankRdBursts::7              275                       # Per bank write bursts
system.mem_ctrls0.perBankRdBursts::8              278                       # Per bank write bursts
system.mem_ctrls0.perBankRdBursts::9              247                       # Per bank write bursts
system.mem_ctrls0.perBankRdBursts::10             319                       # Per bank write bursts
system.mem_ctrls0.perBankRdBursts::11             411                       # Per bank write bursts
system.mem_ctrls0.perBankRdBursts::12             432                       # Per bank write bursts
system.mem_ctrls0.perBankRdBursts::13             338                       # Per bank write bursts
system.mem_ctrls0.perBankRdBursts::14             404                       # Per bank write bursts
system.mem_ctrls0.perBankRdBursts::15             415                       # Per bank write bursts
system.mem_ctrls0.perBankWrBursts::0              545                       # Per bank write bursts
system.mem_ctrls0.perBankWrBursts::1              507                       # Per bank write bursts
system.mem_ctrls0.perBankWrBursts::2              437                       # Per bank write bursts
system.mem_ctrls0.perBankWrBursts::3              350                       # Per bank write bursts
system.mem_ctrls0.perBankWrBursts::4              263                       # Per bank write bursts
system.mem_ctrls0.perBankWrBursts::5              305                       # Per bank write bursts
system.mem_ctrls0.perBankWrBursts::6              318                       # Per bank write bursts
system.mem_ctrls0.perBankWrBursts::7              454                       # Per bank write bursts
system.mem_ctrls0.perBankWrBursts::8              726                       # Per bank write bursts
system.mem_ctrls0.perBankWrBursts::9              685                       # Per bank write bursts
system.mem_ctrls0.perBankWrBursts::10             630                       # Per bank write bursts
system.mem_ctrls0.perBankWrBursts::11             604                       # Per bank write bursts
system.mem_ctrls0.perBankWrBursts::12             533                       # Per bank write bursts
system.mem_ctrls0.perBankWrBursts::13             431                       # Per bank write bursts
system.mem_ctrls0.perBankWrBursts::14             411                       # Per bank write bursts
system.mem_ctrls0.perBankWrBursts::15             417                       # Per bank write bursts
system.mem_ctrls0.numRdRetry                        0                       # Number of times read queue was full causing retry
system.mem_ctrls0.numWrRetry                        8                       # Number of times write queue was full causing retry
system.mem_ctrls0.totGap                 295632378000                       # Total gap between requests
system.mem_ctrls0.readPktSize::0                    0                       # Read request sizes (log2)
system.mem_ctrls0.readPktSize::1                    0                       # Read request sizes (log2)
system.mem_ctrls0.readPktSize::2                    0                       # Read request sizes (log2)
system.mem_ctrls0.readPktSize::3                    0                       # Read request sizes (log2)
system.mem_ctrls0.readPktSize::4                    0                       # Read request sizes (log2)
system.mem_ctrls0.readPktSize::5                    0                       # Read request sizes (log2)
system.mem_ctrls0.readPktSize::6                 5806                       # Read request sizes (log2)
system.mem_ctrls0.writePktSize::0                   0                       # Write request sizes (log2)
system.mem_ctrls0.writePktSize::1                   0                       # Write request sizes (log2)
system.mem_ctrls0.writePktSize::2                   0                       # Write request sizes (log2)
system.mem_ctrls0.writePktSize::3                   0                       # Write request sizes (log2)
system.mem_ctrls0.writePktSize::4                   0                       # Write request sizes (log2)
system.mem_ctrls0.writePktSize::5                   0                       # Write request sizes (log2)
system.mem_ctrls0.writePktSize::6                7677                       # Write request sizes (log2)
system.mem_ctrls0.rdQLenPdf::0                   5544                       # What read queue length does an incoming req see
system.mem_ctrls0.rdQLenPdf::1                      1                       # What read queue length does an incoming req see
system.mem_ctrls0.rdQLenPdf::2                      0                       # What read queue length does an incoming req see
system.mem_ctrls0.rdQLenPdf::3                      0                       # What read queue length does an incoming req see
system.mem_ctrls0.rdQLenPdf::4                      0                       # What read queue length does an incoming req see
system.mem_ctrls0.rdQLenPdf::5                      0                       # What read queue length does an incoming req see
system.mem_ctrls0.rdQLenPdf::6                      0                       # What read queue length does an incoming req see
system.mem_ctrls0.rdQLenPdf::7                      0                       # What read queue length does an incoming req see
system.mem_ctrls0.rdQLenPdf::8                      0                       # What read queue length does an incoming req see
system.mem_ctrls0.rdQLenPdf::9                      0                       # What read queue length does an incoming req see
system.mem_ctrls0.rdQLenPdf::10                     0                       # What read queue length does an incoming req see
system.mem_ctrls0.rdQLenPdf::11                     0                       # What read queue length does an incoming req see
system.mem_ctrls0.rdQLenPdf::12                     0                       # What read queue length does an incoming req see
system.mem_ctrls0.rdQLenPdf::13                     0                       # What read queue length does an incoming req see
system.mem_ctrls0.rdQLenPdf::14                     0                       # What read queue length does an incoming req see
system.mem_ctrls0.rdQLenPdf::15                     0                       # What read queue length does an incoming req see
system.mem_ctrls0.rdQLenPdf::16                     0                       # What read queue length does an incoming req see
system.mem_ctrls0.rdQLenPdf::17                     0                       # What read queue length does an incoming req see
system.mem_ctrls0.rdQLenPdf::18                     0                       # What read queue length does an incoming req see
system.mem_ctrls0.rdQLenPdf::19                     0                       # What read queue length does an incoming req see
system.mem_ctrls0.rdQLenPdf::20                     0                       # What read queue length does an incoming req see
system.mem_ctrls0.rdQLenPdf::21                     0                       # What read queue length does an incoming req see
system.mem_ctrls0.rdQLenPdf::22                     0                       # What read queue length does an incoming req see
system.mem_ctrls0.rdQLenPdf::23                     0                       # What read queue length does an incoming req see
system.mem_ctrls0.rdQLenPdf::24                     0                       # What read queue length does an incoming req see
system.mem_ctrls0.rdQLenPdf::25                     0                       # What read queue length does an incoming req see
system.mem_ctrls0.rdQLenPdf::26                     0                       # What read queue length does an incoming req see
system.mem_ctrls0.rdQLenPdf::27                     0                       # What read queue length does an incoming req see
system.mem_ctrls0.rdQLenPdf::28                     0                       # What read queue length does an incoming req see
system.mem_ctrls0.rdQLenPdf::29                     0                       # What read queue length does an incoming req see
system.mem_ctrls0.rdQLenPdf::30                     0                       # What read queue length does an incoming req see
system.mem_ctrls0.rdQLenPdf::31                     0                       # What read queue length does an incoming req see
system.mem_ctrls0.wrQLenPdf::0                      0                       # What write queue length does an incoming req see
system.mem_ctrls0.wrQLenPdf::1                      0                       # What write queue length does an incoming req see
system.mem_ctrls0.wrQLenPdf::2                      0                       # What write queue length does an incoming req see
system.mem_ctrls0.wrQLenPdf::3                      0                       # What write queue length does an incoming req see
system.mem_ctrls0.wrQLenPdf::4                      0                       # What write queue length does an incoming req see
system.mem_ctrls0.wrQLenPdf::5                      0                       # What write queue length does an incoming req see
system.mem_ctrls0.wrQLenPdf::6                      0                       # What write queue length does an incoming req see
system.mem_ctrls0.wrQLenPdf::7                      0                       # What write queue length does an incoming req see
system.mem_ctrls0.wrQLenPdf::8                      0                       # What write queue length does an incoming req see
system.mem_ctrls0.wrQLenPdf::9                      0                       # What write queue length does an incoming req see
system.mem_ctrls0.wrQLenPdf::10                     0                       # What write queue length does an incoming req see
system.mem_ctrls0.wrQLenPdf::11                     0                       # What write queue length does an incoming req see
system.mem_ctrls0.wrQLenPdf::12                     0                       # What write queue length does an incoming req see
system.mem_ctrls0.wrQLenPdf::13                     0                       # What write queue length does an incoming req see
system.mem_ctrls0.wrQLenPdf::14                     0                       # What write queue length does an incoming req see
system.mem_ctrls0.wrQLenPdf::15                    98                       # What write queue length does an incoming req see
system.mem_ctrls0.wrQLenPdf::16                   133                       # What write queue length does an incoming req see
system.mem_ctrls0.wrQLenPdf::17                   395                       # What write queue length does an incoming req see
system.mem_ctrls0.wrQLenPdf::18                   415                       # What write queue length does an incoming req see
system.mem_ctrls0.wrQLenPdf::19                   428                       # What write queue length does an incoming req see
system.mem_ctrls0.wrQLenPdf::20                   438                       # What write queue length does an incoming req see
system.mem_ctrls0.wrQLenPdf::21                   434                       # What write queue length does an incoming req see
system.mem_ctrls0.wrQLenPdf::22                   450                       # What write queue length does an incoming req see
system.mem_ctrls0.wrQLenPdf::23                   435                       # What write queue length does an incoming req see
system.mem_ctrls0.wrQLenPdf::24                   453                       # What write queue length does an incoming req see
system.mem_ctrls0.wrQLenPdf::25                   483                       # What write queue length does an incoming req see
system.mem_ctrls0.wrQLenPdf::26                   430                       # What write queue length does an incoming req see
system.mem_ctrls0.wrQLenPdf::27                   429                       # What write queue length does an incoming req see
system.mem_ctrls0.wrQLenPdf::28                   455                       # What write queue length does an incoming req see
system.mem_ctrls0.wrQLenPdf::29                   422                       # What write queue length does an incoming req see
system.mem_ctrls0.wrQLenPdf::30                   409                       # What write queue length does an incoming req see
system.mem_ctrls0.wrQLenPdf::31                   394                       # What write queue length does an incoming req see
system.mem_ctrls0.wrQLenPdf::32                   386                       # What write queue length does an incoming req see
system.mem_ctrls0.wrQLenPdf::33                    32                       # What write queue length does an incoming req see
system.mem_ctrls0.wrQLenPdf::34                    30                       # What write queue length does an incoming req see
system.mem_ctrls0.wrQLenPdf::35                    32                       # What write queue length does an incoming req see
system.mem_ctrls0.wrQLenPdf::36                    27                       # What write queue length does an incoming req see
system.mem_ctrls0.wrQLenPdf::37                    28                       # What write queue length does an incoming req see
system.mem_ctrls0.wrQLenPdf::38                    25                       # What write queue length does an incoming req see
system.mem_ctrls0.wrQLenPdf::39                    25                       # What write queue length does an incoming req see
system.mem_ctrls0.wrQLenPdf::40                    22                       # What write queue length does an incoming req see
system.mem_ctrls0.wrQLenPdf::41                    20                       # What write queue length does an incoming req see
system.mem_ctrls0.wrQLenPdf::42                    19                       # What write queue length does an incoming req see
system.mem_ctrls0.wrQLenPdf::43                    19                       # What write queue length does an incoming req see
system.mem_ctrls0.wrQLenPdf::44                    14                       # What write queue length does an incoming req see
system.mem_ctrls0.wrQLenPdf::45                    14                       # What write queue length does an incoming req see
system.mem_ctrls0.wrQLenPdf::46                    14                       # What write queue length does an incoming req see
system.mem_ctrls0.wrQLenPdf::47                    15                       # What write queue length does an incoming req see
system.mem_ctrls0.wrQLenPdf::48                    16                       # What write queue length does an incoming req see
system.mem_ctrls0.wrQLenPdf::49                    16                       # What write queue length does an incoming req see
system.mem_ctrls0.wrQLenPdf::50                    18                       # What write queue length does an incoming req see
system.mem_ctrls0.wrQLenPdf::51                    17                       # What write queue length does an incoming req see
system.mem_ctrls0.wrQLenPdf::52                    19                       # What write queue length does an incoming req see
system.mem_ctrls0.wrQLenPdf::53                    16                       # What write queue length does an incoming req see
system.mem_ctrls0.wrQLenPdf::54                    13                       # What write queue length does an incoming req see
system.mem_ctrls0.wrQLenPdf::55                    11                       # What write queue length does an incoming req see
system.mem_ctrls0.wrQLenPdf::56                    10                       # What write queue length does an incoming req see
system.mem_ctrls0.wrQLenPdf::57                     8                       # What write queue length does an incoming req see
system.mem_ctrls0.wrQLenPdf::58                     7                       # What write queue length does an incoming req see
system.mem_ctrls0.wrQLenPdf::59                     7                       # What write queue length does an incoming req see
system.mem_ctrls0.wrQLenPdf::60                     5                       # What write queue length does an incoming req see
system.mem_ctrls0.wrQLenPdf::61                     4                       # What write queue length does an incoming req see
system.mem_ctrls0.wrQLenPdf::62                     8                       # What write queue length does an incoming req see
system.mem_ctrls0.wrQLenPdf::63                    13                       # What write queue length does an incoming req see
system.mem_ctrls0.bytesPerActivate::samples         3447                       # Bytes accessed per row activation
system.mem_ctrls0.bytesPerActivate::mean   244.358573                       # Bytes accessed per row activation
system.mem_ctrls0.bytesPerActivate::gmean   164.385736                       # Bytes accessed per row activation
system.mem_ctrls0.bytesPerActivate::stdev   241.912935                       # Bytes accessed per row activation
system.mem_ctrls0.bytesPerActivate::0-127         1227     35.60%     35.60% # Bytes accessed per row activation
system.mem_ctrls0.bytesPerActivate::128-255          923     26.78%     62.37% # Bytes accessed per row activation
system.mem_ctrls0.bytesPerActivate::256-383          513     14.88%     77.26% # Bytes accessed per row activation
system.mem_ctrls0.bytesPerActivate::384-511          362     10.50%     87.76% # Bytes accessed per row activation
system.mem_ctrls0.bytesPerActivate::512-639          152      4.41%     92.17% # Bytes accessed per row activation
system.mem_ctrls0.bytesPerActivate::640-767           50      1.45%     93.62% # Bytes accessed per row activation
system.mem_ctrls0.bytesPerActivate::768-895           32      0.93%     94.55% # Bytes accessed per row activation
system.mem_ctrls0.bytesPerActivate::896-1023           31      0.90%     95.45% # Bytes accessed per row activation
system.mem_ctrls0.bytesPerActivate::1024-1151          157      4.55%    100.00% # Bytes accessed per row activation
system.mem_ctrls0.bytesPerActivate::total         3447                       # Bytes accessed per row activation
system.mem_ctrls0.rdPerTurnAround::samples          371                       # Reads before turning the bus around for writes
system.mem_ctrls0.rdPerTurnAround::mean     14.978437                       # Reads before turning the bus around for writes
system.mem_ctrls0.rdPerTurnAround::stdev    11.385603                       # Reads before turning the bus around for writes
system.mem_ctrls0.rdPerTurnAround::0-3             81     21.83%     21.83% # Reads before turning the bus around for writes
system.mem_ctrls0.rdPerTurnAround::4-7             16      4.31%     26.15% # Reads before turning the bus around for writes
system.mem_ctrls0.rdPerTurnAround::8-11            20      5.39%     31.54% # Reads before turning the bus around for writes
system.mem_ctrls0.rdPerTurnAround::12-15           14      3.77%     35.31% # Reads before turning the bus around for writes
system.mem_ctrls0.rdPerTurnAround::16-19          160     43.13%     78.44% # Reads before turning the bus around for writes
system.mem_ctrls0.rdPerTurnAround::20-23           32      8.63%     87.06% # Reads before turning the bus around for writes
system.mem_ctrls0.rdPerTurnAround::24-27           21      5.66%     92.72% # Reads before turning the bus around for writes
system.mem_ctrls0.rdPerTurnAround::28-31           12      3.23%     95.96% # Reads before turning the bus around for writes
system.mem_ctrls0.rdPerTurnAround::32-35            5      1.35%     97.30% # Reads before turning the bus around for writes
system.mem_ctrls0.rdPerTurnAround::36-39            2      0.54%     97.84% # Reads before turning the bus around for writes
system.mem_ctrls0.rdPerTurnAround::44-47            1      0.27%     98.11% # Reads before turning the bus around for writes
system.mem_ctrls0.rdPerTurnAround::52-55            1      0.27%     98.38% # Reads before turning the bus around for writes
system.mem_ctrls0.rdPerTurnAround::60-63            2      0.54%     98.92% # Reads before turning the bus around for writes
system.mem_ctrls0.rdPerTurnAround::68-71            2      0.54%     99.46% # Reads before turning the bus around for writes
system.mem_ctrls0.rdPerTurnAround::72-75            1      0.27%     99.73% # Reads before turning the bus around for writes
system.mem_ctrls0.rdPerTurnAround::80-83            1      0.27%    100.00% # Reads before turning the bus around for writes
system.mem_ctrls0.rdPerTurnAround::total          371                       # Reads before turning the bus around for writes
system.mem_ctrls0.wrPerTurnAround::samples          371                       # Writes before turning the bus around for reads
system.mem_ctrls0.wrPerTurnAround::mean     20.528302                       # Writes before turning the bus around for reads
system.mem_ctrls0.wrPerTurnAround::gmean    19.187181                       # Writes before turning the bus around for reads
system.mem_ctrls0.wrPerTurnAround::stdev     9.202005                       # Writes before turning the bus around for reads
system.mem_ctrls0.wrPerTurnAround::16-17          261     70.35%     70.35% # Writes before turning the bus around for reads
system.mem_ctrls0.wrPerTurnAround::18-19           19      5.12%     75.47% # Writes before turning the bus around for reads
system.mem_ctrls0.wrPerTurnAround::20-21            4      1.08%     76.55% # Writes before turning the bus around for reads
system.mem_ctrls0.wrPerTurnAround::22-23            5      1.35%     77.90% # Writes before turning the bus around for reads
system.mem_ctrls0.wrPerTurnAround::24-25            9      2.43%     80.32% # Writes before turning the bus around for reads
system.mem_ctrls0.wrPerTurnAround::26-27           12      3.23%     83.56% # Writes before turning the bus around for reads
system.mem_ctrls0.wrPerTurnAround::28-29           11      2.96%     86.52% # Writes before turning the bus around for reads
system.mem_ctrls0.wrPerTurnAround::30-31            2      0.54%     87.06% # Writes before turning the bus around for reads
system.mem_ctrls0.wrPerTurnAround::32-33            8      2.16%     89.22% # Writes before turning the bus around for reads
system.mem_ctrls0.wrPerTurnAround::34-35            4      1.08%     90.30% # Writes before turning the bus around for reads
system.mem_ctrls0.wrPerTurnAround::36-37            4      1.08%     91.37% # Writes before turning the bus around for reads
system.mem_ctrls0.wrPerTurnAround::38-39            8      2.16%     93.53% # Writes before turning the bus around for reads
system.mem_ctrls0.wrPerTurnAround::40-41            4      1.08%     94.61% # Writes before turning the bus around for reads
system.mem_ctrls0.wrPerTurnAround::42-43            5      1.35%     95.96% # Writes before turning the bus around for reads
system.mem_ctrls0.wrPerTurnAround::44-45            2      0.54%     96.50% # Writes before turning the bus around for reads
system.mem_ctrls0.wrPerTurnAround::46-47            2      0.54%     97.04% # Writes before turning the bus around for reads
system.mem_ctrls0.wrPerTurnAround::48-49            5      1.35%     98.38% # Writes before turning the bus around for reads
system.mem_ctrls0.wrPerTurnAround::50-51            3      0.81%     99.19% # Writes before turning the bus around for reads
system.mem_ctrls0.wrPerTurnAround::60-61            1      0.27%     99.46% # Writes before turning the bus around for reads
system.mem_ctrls0.wrPerTurnAround::66-67            1      0.27%     99.73% # Writes before turning the bus around for reads
system.mem_ctrls0.wrPerTurnAround::68-69            1      0.27%    100.00% # Writes before turning the bus around for reads
system.mem_ctrls0.wrPerTurnAround::total          371                       # Writes before turning the bus around for reads
system.mem_ctrls0.totQLat                   485459500                       # Total ticks spent queuing
system.mem_ctrls0.totMemAccLat              589428250                       # Total ticks spent from burst creation until serviced by the DRAM
system.mem_ctrls0.totBusLat                  27725000                       # Total ticks spent in databus transfers
system.mem_ctrls0.avgQLat                    87549.05                       # Average queueing delay per DRAM burst
system.mem_ctrls0.avgBusLat                   5000.00                       # Average bus latency per DRAM burst
system.mem_ctrls0.avgMemAccLat              106299.05                       # Average memory access latency per DRAM burst
system.mem_ctrls0.avgRdBW                        1.08                       # Average DRAM read bandwidth in MiByte/s
system.mem_ctrls0.avgWrBW                        1.48                       # Average achieved write bandwidth in MiByte/s
system.mem_ctrls0.avgRdBWSys                     1.13                       # Average system read bandwidth in MiByte/s
system.mem_ctrls0.avgWrBWSys                     1.49                       # Average system write bandwidth in MiByte/s
system.mem_ctrls0.peakBW                     12800.00                       # Theoretical peak bandwidth in MiByte/s
system.mem_ctrls0.busUtil                        0.02                       # Data bus utilization in percentage
system.mem_ctrls0.busUtilRead                    0.01                       # Data bus utilization in percentage for reads
system.mem_ctrls0.busUtilWrite                   0.01                       # Data bus utilization in percentage for writes
system.mem_ctrls0.avgRdQLen                      1.00                       # Average read queue length when enqueuing
system.mem_ctrls0.avgWrQLen                     25.89                       # Average write queue length when enqueuing
system.mem_ctrls0.readRowHits                    3695                       # Number of row buffer hits during reads
system.mem_ctrls0.writeRowHits                   6019                       # Number of row buffer hits during writes
system.mem_ctrls0.readRowHitRate                66.64                       # Row buffer hit rate for reads
system.mem_ctrls0.writeRowHitRate               79.08                       # Row buffer hit rate for writes
system.mem_ctrls0.avgGap                  21926305.57                       # Average gap between requests
system.mem_ctrls0.pageHitRate                   73.84                       # Row buffer hit rate, read and write combined
system.mem_ctrls0_0.actEnergy                51450840                       # Energy for activate commands per rank (pJ)
system.mem_ctrls0_0.preEnergy                27346770                       # Energy for precharge commands per rank (pJ)
system.mem_ctrls0_0.readEnergy              139636980                       # Energy for read commands per rank (pJ)
system.mem_ctrls0_0.writeEnergy              39144780                       # Energy for write commands per rank (pJ)
system.mem_ctrls0_0.refreshEnergy        5810806560.000001                       # Energy for refresh commands per rank (pJ)
system.mem_ctrls0_0.actBackEnergy          1757011320                       # Energy for active background per rank (pJ)
system.mem_ctrls0_0.preBackEnergy           338295840                       # Energy for precharge background per rank (pJ)
system.mem_ctrls0_0.actPowerDownEnergy    14304487440                       # Energy for active power-down per rank (pJ)
system.mem_ctrls0_0.prePowerDownEnergy     8212119360                       # Energy for precharge power-down per rank (pJ)
system.mem_ctrls0_0.selfRefreshEnergy    1321216929960                       # Energy for self refresh per rank (pJ)
system.mem_ctrls0_0.totalEnergy          1351899425700                       # Total energy per rank (pJ)
system.mem_ctrls0_0.averagePower           243.259326                       # Core power per rank (mW)
system.mem_ctrls0_0.totalIdleTime        294485517000                       # Total Idle time Per DRAM Rank
system.mem_ctrls0_0.memoryStateTime::IDLE    167459000                       # Time in different power states
system.mem_ctrls0_0.memoryStateTime::REF    467258000                       # Time in different power states
system.mem_ctrls0_0.memoryStateTime::SREF 319527557500                       # Time in different power states
system.mem_ctrls0_0.memoryStateTime::PRE_PDN   4311982500                       # Time in different power states
system.mem_ctrls0_0.memoryStateTime::ACT    508783500                       # Time in different power states
system.mem_ctrls0_0.memoryStateTime::ACT_PDN   4970639500                       # Time in different power states
system.mem_ctrls0_1.actEnergy                48187860                       # Energy for activate commands per rank (pJ)
system.mem_ctrls0_1.preEnergy                25612455                       # Energy for precharge commands per rank (pJ)
system.mem_ctrls0_1.readEnergy              140807940                       # Energy for read commands per rank (pJ)
system.mem_ctrls0_1.writeEnergy              42323760                       # Energy for write commands per rank (pJ)
system.mem_ctrls0_1.refreshEnergy        5196781200.000001                       # Energy for refresh commands per rank (pJ)
system.mem_ctrls0_1.actBackEnergy          1664084220                       # Energy for active background per rank (pJ)
system.mem_ctrls0_1.preBackEnergy           279557280                       # Energy for precharge background per rank (pJ)
system.mem_ctrls0_1.actPowerDownEnergy    13490375250                       # Energy for active power-down per rank (pJ)
system.mem_ctrls0_1.prePowerDownEnergy     6978385920                       # Energy for precharge power-down per rank (pJ)
system.mem_ctrls0_1.selfRefreshEnergy    1322317432560                       # Energy for self refresh per rank (pJ)
system.mem_ctrls0_1.totalEnergy          1350184873275                       # Total energy per rank (pJ)
system.mem_ctrls0_1.averagePower           242.950811                       # Core power per rank (mW)
system.mem_ctrls0_1.totalIdleTime        296978594250                       # Total Idle time Per DRAM Rank
system.mem_ctrls0_1.memoryStateTime::IDLE    115710000                       # Time in different power states
system.mem_ctrls0_1.memoryStateTime::REF    439078000                       # Time in different power states
system.mem_ctrls0_1.memoryStateTime::SREF 322369521000                       # Time in different power states
system.mem_ctrls0_1.memoryStateTime::PRE_PDN   3835404000                       # Time in different power states
system.mem_ctrls0_1.memoryStateTime::ACT    555391750                       # Time in different power states
system.mem_ctrls0_1.memoryStateTime::ACT_PDN   5096925500                       # Time in different power states
system.mem_ctrls1.pwrStateResidencyTicks::UNDEFINED 5557441302500                       # Cumulative time (in ticks) in various power states
system.mem_ctrls1.bytes_read::ruby.dir_cntrl1       360256                       # Number of bytes read from this memory
system.mem_ctrls1.bytes_read::total            360256                       # Number of bytes read from this memory
system.mem_ctrls1.bytes_written::ruby.dir_cntrl1       490688                       # Number of bytes written to this memory
system.mem_ctrls1.bytes_written::total         490688                       # Number of bytes written to this memory
system.mem_ctrls1.num_reads::ruby.dir_cntrl1         5629                       # Number of read requests responded to by this memory
system.mem_ctrls1.num_reads::total               5629                       # Number of read requests responded to by this memory
system.mem_ctrls1.num_writes::ruby.dir_cntrl1         7667                       # Number of write requests responded to by this memory
system.mem_ctrls1.num_writes::total              7667                       # Number of write requests responded to by this memory
system.mem_ctrls1.bw_read::ruby.dir_cntrl1      1094853                       # Total read bandwidth from this memory (bytes/s)
system.mem_ctrls1.bw_read::total              1094853                       # Total read bandwidth from this memory (bytes/s)
system.mem_ctrls1.bw_write::ruby.dir_cntrl1      1491248                       # Write bandwidth from this memory (bytes/s)
system.mem_ctrls1.bw_write::total             1491248                       # Write bandwidth from this memory (bytes/s)
system.mem_ctrls1.bw_total::ruby.dir_cntrl1      2586101                       # Total bandwidth to/from this memory (bytes/s)
system.mem_ctrls1.bw_total::total             2586101                       # Total bandwidth to/from this memory (bytes/s)
system.mem_ctrls1.readReqs                       5629                       # Number of read requests accepted
system.mem_ctrls1.writeReqs                      7667                       # Number of write requests accepted
system.mem_ctrls1.readBursts                     5629                       # Number of DRAM read bursts, including those serviced by the write queue
system.mem_ctrls1.writeBursts                    7667                       # Number of DRAM write bursts, including those merged in the write queue
system.mem_ctrls1.bytesReadDRAM                348864                       # Total number of bytes read from DRAM
system.mem_ctrls1.bytesReadWrQ                  11392                       # Total number of bytes read from write queue
system.mem_ctrls1.bytesWritten                 490624                       # Total number of bytes written to DRAM
system.mem_ctrls1.bytesReadSys                 360256                       # Total read bytes from the system interface side
system.mem_ctrls1.bytesWrittenSys              490688                       # Total written bytes from the system interface side
system.mem_ctrls1.servicedByWrQ                   178                       # Number of DRAM read bursts serviced by the write queue
system.mem_ctrls1.mergedWrBursts                    0                       # Number of DRAM write bursts merged with an existing one
system.mem_ctrls1.neitherReadNorWriteReqs            0                       # Number of requests that are neither read nor write
system.mem_ctrls1.perBankRdBursts::0              378                       # Per bank write bursts
system.mem_ctrls1.perBankRdBursts::1              371                       # Per bank write bursts
system.mem_ctrls1.perBankRdBursts::2              324                       # Per bank write bursts
system.mem_ctrls1.perBankRdBursts::3              400                       # Per bank write bursts
system.mem_ctrls1.perBankRdBursts::4              358                       # Per bank write bursts
system.mem_ctrls1.perBankRdBursts::5              281                       # Per bank write bursts
system.mem_ctrls1.perBankRdBursts::6              323                       # Per bank write bursts
system.mem_ctrls1.perBankRdBursts::7              284                       # Per bank write bursts
system.mem_ctrls1.perBankRdBursts::8              172                       # Per bank write bursts
system.mem_ctrls1.perBankRdBursts::9              241                       # Per bank write bursts
system.mem_ctrls1.perBankRdBursts::10             321                       # Per bank write bursts
system.mem_ctrls1.perBankRdBursts::11             410                       # Per bank write bursts
system.mem_ctrls1.perBankRdBursts::12             439                       # Per bank write bursts
system.mem_ctrls1.perBankRdBursts::13             326                       # Per bank write bursts
system.mem_ctrls1.perBankRdBursts::14             406                       # Per bank write bursts
system.mem_ctrls1.perBankRdBursts::15             417                       # Per bank write bursts
system.mem_ctrls1.perBankWrBursts::0              540                       # Per bank write bursts
system.mem_ctrls1.perBankWrBursts::1              513                       # Per bank write bursts
system.mem_ctrls1.perBankWrBursts::2              444                       # Per bank write bursts
system.mem_ctrls1.perBankWrBursts::3              368                       # Per bank write bursts
system.mem_ctrls1.perBankWrBursts::4              274                       # Per bank write bursts
system.mem_ctrls1.perBankWrBursts::5              340                       # Per bank write bursts
system.mem_ctrls1.perBankWrBursts::6              362                       # Per bank write bursts
system.mem_ctrls1.perBankWrBursts::7              463                       # Per bank write bursts
system.mem_ctrls1.perBankWrBursts::8              655                       # Per bank write bursts
system.mem_ctrls1.perBankWrBursts::9              677                       # Per bank write bursts
system.mem_ctrls1.perBankWrBursts::10             647                       # Per bank write bursts
system.mem_ctrls1.perBankWrBursts::11             599                       # Per bank write bursts
system.mem_ctrls1.perBankWrBursts::12             538                       # Per bank write bursts
system.mem_ctrls1.perBankWrBursts::13             431                       # Per bank write bursts
system.mem_ctrls1.perBankWrBursts::14             413                       # Per bank write bursts
system.mem_ctrls1.perBankWrBursts::15             402                       # Per bank write bursts
system.mem_ctrls1.numRdRetry                        0                       # Number of times read queue was full causing retry
system.mem_ctrls1.numWrRetry                       49                       # Number of times write queue was full causing retry
system.mem_ctrls1.totGap                 298080568500                       # Total gap between requests
system.mem_ctrls1.readPktSize::0                    0                       # Read request sizes (log2)
system.mem_ctrls1.readPktSize::1                    0                       # Read request sizes (log2)
system.mem_ctrls1.readPktSize::2                    0                       # Read request sizes (log2)
system.mem_ctrls1.readPktSize::3                    0                       # Read request sizes (log2)
system.mem_ctrls1.readPktSize::4                    0                       # Read request sizes (log2)
system.mem_ctrls1.readPktSize::5                    0                       # Read request sizes (log2)
system.mem_ctrls1.readPktSize::6                 5629                       # Read request sizes (log2)
system.mem_ctrls1.writePktSize::0                   0                       # Write request sizes (log2)
system.mem_ctrls1.writePktSize::1                   0                       # Write request sizes (log2)
system.mem_ctrls1.writePktSize::2                   0                       # Write request sizes (log2)
system.mem_ctrls1.writePktSize::3                   0                       # Write request sizes (log2)
system.mem_ctrls1.writePktSize::4                   0                       # Write request sizes (log2)
system.mem_ctrls1.writePktSize::5                   0                       # Write request sizes (log2)
system.mem_ctrls1.writePktSize::6                7667                       # Write request sizes (log2)
system.mem_ctrls1.rdQLenPdf::0                   5451                       # What read queue length does an incoming req see
system.mem_ctrls1.rdQLenPdf::1                      0                       # What read queue length does an incoming req see
system.mem_ctrls1.rdQLenPdf::2                      0                       # What read queue length does an incoming req see
system.mem_ctrls1.rdQLenPdf::3                      0                       # What read queue length does an incoming req see
system.mem_ctrls1.rdQLenPdf::4                      0                       # What read queue length does an incoming req see
system.mem_ctrls1.rdQLenPdf::5                      0                       # What read queue length does an incoming req see
system.mem_ctrls1.rdQLenPdf::6                      0                       # What read queue length does an incoming req see
system.mem_ctrls1.rdQLenPdf::7                      0                       # What read queue length does an incoming req see
system.mem_ctrls1.rdQLenPdf::8                      0                       # What read queue length does an incoming req see
system.mem_ctrls1.rdQLenPdf::9                      0                       # What read queue length does an incoming req see
system.mem_ctrls1.rdQLenPdf::10                     0                       # What read queue length does an incoming req see
system.mem_ctrls1.rdQLenPdf::11                     0                       # What read queue length does an incoming req see
system.mem_ctrls1.rdQLenPdf::12                     0                       # What read queue length does an incoming req see
system.mem_ctrls1.rdQLenPdf::13                     0                       # What read queue length does an incoming req see
system.mem_ctrls1.rdQLenPdf::14                     0                       # What read queue length does an incoming req see
system.mem_ctrls1.rdQLenPdf::15                     0                       # What read queue length does an incoming req see
system.mem_ctrls1.rdQLenPdf::16                     0                       # What read queue length does an incoming req see
system.mem_ctrls1.rdQLenPdf::17                     0                       # What read queue length does an incoming req see
system.mem_ctrls1.rdQLenPdf::18                     0                       # What read queue length does an incoming req see
system.mem_ctrls1.rdQLenPdf::19                     0                       # What read queue length does an incoming req see
system.mem_ctrls1.rdQLenPdf::20                     0                       # What read queue length does an incoming req see
system.mem_ctrls1.rdQLenPdf::21                     0                       # What read queue length does an incoming req see
system.mem_ctrls1.rdQLenPdf::22                     0                       # What read queue length does an incoming req see
system.mem_ctrls1.rdQLenPdf::23                     0                       # What read queue length does an incoming req see
system.mem_ctrls1.rdQLenPdf::24                     0                       # What read queue length does an incoming req see
system.mem_ctrls1.rdQLenPdf::25                     0                       # What read queue length does an incoming req see
system.mem_ctrls1.rdQLenPdf::26                     0                       # What read queue length does an incoming req see
system.mem_ctrls1.rdQLenPdf::27                     0                       # What read queue length does an incoming req see
system.mem_ctrls1.rdQLenPdf::28                     0                       # What read queue length does an incoming req see
system.mem_ctrls1.rdQLenPdf::29                     0                       # What read queue length does an incoming req see
system.mem_ctrls1.rdQLenPdf::30                     0                       # What read queue length does an incoming req see
system.mem_ctrls1.rdQLenPdf::31                     0                       # What read queue length does an incoming req see
system.mem_ctrls1.wrQLenPdf::0                      0                       # What write queue length does an incoming req see
system.mem_ctrls1.wrQLenPdf::1                      0                       # What write queue length does an incoming req see
system.mem_ctrls1.wrQLenPdf::2                      0                       # What write queue length does an incoming req see
system.mem_ctrls1.wrQLenPdf::3                      0                       # What write queue length does an incoming req see
system.mem_ctrls1.wrQLenPdf::4                      0                       # What write queue length does an incoming req see
system.mem_ctrls1.wrQLenPdf::5                      0                       # What write queue length does an incoming req see
system.mem_ctrls1.wrQLenPdf::6                      0                       # What write queue length does an incoming req see
system.mem_ctrls1.wrQLenPdf::7                      0                       # What write queue length does an incoming req see
system.mem_ctrls1.wrQLenPdf::8                      0                       # What write queue length does an incoming req see
system.mem_ctrls1.wrQLenPdf::9                      0                       # What write queue length does an incoming req see
system.mem_ctrls1.wrQLenPdf::10                     0                       # What write queue length does an incoming req see
system.mem_ctrls1.wrQLenPdf::11                     0                       # What write queue length does an incoming req see
system.mem_ctrls1.wrQLenPdf::12                     0                       # What write queue length does an incoming req see
system.mem_ctrls1.wrQLenPdf::13                     0                       # What write queue length does an incoming req see
system.mem_ctrls1.wrQLenPdf::14                     0                       # What write queue length does an incoming req see
system.mem_ctrls1.wrQLenPdf::15                   100                       # What write queue length does an incoming req see
system.mem_ctrls1.wrQLenPdf::16                   132                       # What write queue length does an incoming req see
system.mem_ctrls1.wrQLenPdf::17                   378                       # What write queue length does an incoming req see
system.mem_ctrls1.wrQLenPdf::18                   401                       # What write queue length does an incoming req see
system.mem_ctrls1.wrQLenPdf::19                   412                       # What write queue length does an incoming req see
system.mem_ctrls1.wrQLenPdf::20                   406                       # What write queue length does an incoming req see
system.mem_ctrls1.wrQLenPdf::21                   392                       # What write queue length does an incoming req see
system.mem_ctrls1.wrQLenPdf::22                   422                       # What write queue length does an incoming req see
system.mem_ctrls1.wrQLenPdf::23                   407                       # What write queue length does an incoming req see
system.mem_ctrls1.wrQLenPdf::24                   427                       # What write queue length does an incoming req see
system.mem_ctrls1.wrQLenPdf::25                   450                       # What write queue length does an incoming req see
system.mem_ctrls1.wrQLenPdf::26                   393                       # What write queue length does an incoming req see
system.mem_ctrls1.wrQLenPdf::27                   372                       # What write queue length does an incoming req see
system.mem_ctrls1.wrQLenPdf::28                   389                       # What write queue length does an incoming req see
system.mem_ctrls1.wrQLenPdf::29                   399                       # What write queue length does an incoming req see
system.mem_ctrls1.wrQLenPdf::30                   387                       # What write queue length does an incoming req see
system.mem_ctrls1.wrQLenPdf::31                   376                       # What write queue length does an incoming req see
system.mem_ctrls1.wrQLenPdf::32                   370                       # What write queue length does an incoming req see
system.mem_ctrls1.wrQLenPdf::33                    50                       # What write queue length does an incoming req see
system.mem_ctrls1.wrQLenPdf::34                    50                       # What write queue length does an incoming req see
system.mem_ctrls1.wrQLenPdf::35                    49                       # What write queue length does an incoming req see
system.mem_ctrls1.wrQLenPdf::36                    46                       # What write queue length does an incoming req see
system.mem_ctrls1.wrQLenPdf::37                    42                       # What write queue length does an incoming req see
system.mem_ctrls1.wrQLenPdf::38                    38                       # What write queue length does an incoming req see
system.mem_ctrls1.wrQLenPdf::39                    39                       # What write queue length does an incoming req see
system.mem_ctrls1.wrQLenPdf::40                    37                       # What write queue length does an incoming req see
system.mem_ctrls1.wrQLenPdf::41                    39                       # What write queue length does an incoming req see
system.mem_ctrls1.wrQLenPdf::42                    39                       # What write queue length does an incoming req see
system.mem_ctrls1.wrQLenPdf::43                    36                       # What write queue length does an incoming req see
system.mem_ctrls1.wrQLenPdf::44                    32                       # What write queue length does an incoming req see
system.mem_ctrls1.wrQLenPdf::45                    32                       # What write queue length does an incoming req see
system.mem_ctrls1.wrQLenPdf::46                    31                       # What write queue length does an incoming req see
system.mem_ctrls1.wrQLenPdf::47                    29                       # What write queue length does an incoming req see
system.mem_ctrls1.wrQLenPdf::48                    29                       # What write queue length does an incoming req see
system.mem_ctrls1.wrQLenPdf::49                    27                       # What write queue length does an incoming req see
system.mem_ctrls1.wrQLenPdf::50                    29                       # What write queue length does an incoming req see
system.mem_ctrls1.wrQLenPdf::51                    25                       # What write queue length does an incoming req see
system.mem_ctrls1.wrQLenPdf::52                    27                       # What write queue length does an incoming req see
system.mem_ctrls1.wrQLenPdf::53                    28                       # What write queue length does an incoming req see
system.mem_ctrls1.wrQLenPdf::54                    30                       # What write queue length does an incoming req see
system.mem_ctrls1.wrQLenPdf::55                    27                       # What write queue length does an incoming req see
system.mem_ctrls1.wrQLenPdf::56                    32                       # What write queue length does an incoming req see
system.mem_ctrls1.wrQLenPdf::57                    29                       # What write queue length does an incoming req see
system.mem_ctrls1.wrQLenPdf::58                    29                       # What write queue length does an incoming req see
system.mem_ctrls1.wrQLenPdf::59                    19                       # What write queue length does an incoming req see
system.mem_ctrls1.wrQLenPdf::60                    17                       # What write queue length does an incoming req see
system.mem_ctrls1.wrQLenPdf::61                    18                       # What write queue length does an incoming req see
system.mem_ctrls1.wrQLenPdf::62                    25                       # What write queue length does an incoming req see
system.mem_ctrls1.wrQLenPdf::63                    74                       # What write queue length does an incoming req see
system.mem_ctrls1.bytesPerActivate::samples         3356                       # Bytes accessed per row activation
system.mem_ctrls1.bytesPerActivate::mean   250.145411                       # Bytes accessed per row activation
system.mem_ctrls1.bytesPerActivate::gmean   168.241763                       # Bytes accessed per row activation
system.mem_ctrls1.bytesPerActivate::stdev   245.251347                       # Bytes accessed per row activation
system.mem_ctrls1.bytesPerActivate::0-127         1162     34.62%     34.62% # Bytes accessed per row activation
system.mem_ctrls1.bytesPerActivate::128-255          888     26.46%     61.08% # Bytes accessed per row activation
system.mem_ctrls1.bytesPerActivate::256-383          507     15.11%     76.19% # Bytes accessed per row activation
system.mem_ctrls1.bytesPerActivate::384-511          389     11.59%     87.78% # Bytes accessed per row activation
system.mem_ctrls1.bytesPerActivate::512-639          141      4.20%     91.98% # Bytes accessed per row activation
system.mem_ctrls1.bytesPerActivate::640-767           43      1.28%     93.27% # Bytes accessed per row activation
system.mem_ctrls1.bytesPerActivate::768-895           31      0.92%     94.19% # Bytes accessed per row activation
system.mem_ctrls1.bytesPerActivate::896-1023           33      0.98%     95.17% # Bytes accessed per row activation
system.mem_ctrls1.bytesPerActivate::1024-1151          162      4.83%    100.00% # Bytes accessed per row activation
system.mem_ctrls1.bytesPerActivate::total         3356                       # Bytes accessed per row activation
system.mem_ctrls1.rdPerTurnAround::samples          359                       # Reads before turning the bus around for writes
system.mem_ctrls1.rdPerTurnAround::mean     15.200557                       # Reads before turning the bus around for writes
system.mem_ctrls1.rdPerTurnAround::stdev    10.570006                       # Reads before turning the bus around for writes
system.mem_ctrls1.rdPerTurnAround::0-3             68     18.94%     18.94% # Reads before turning the bus around for writes
system.mem_ctrls1.rdPerTurnAround::4-7             14      3.90%     22.84% # Reads before turning the bus around for writes
system.mem_ctrls1.rdPerTurnAround::8-11            18      5.01%     27.86% # Reads before turning the bus around for writes
system.mem_ctrls1.rdPerTurnAround::12-15           13      3.62%     31.48% # Reads before turning the bus around for writes
system.mem_ctrls1.rdPerTurnAround::16-19          167     46.52%     77.99% # Reads before turning the bus around for writes
system.mem_ctrls1.rdPerTurnAround::20-23           36     10.03%     88.02% # Reads before turning the bus around for writes
system.mem_ctrls1.rdPerTurnAround::24-27           21      5.85%     93.87% # Reads before turning the bus around for writes
system.mem_ctrls1.rdPerTurnAround::28-31           11      3.06%     96.94% # Reads before turning the bus around for writes
system.mem_ctrls1.rdPerTurnAround::32-35            3      0.84%     97.77% # Reads before turning the bus around for writes
system.mem_ctrls1.rdPerTurnAround::36-39            1      0.28%     98.05% # Reads before turning the bus around for writes
system.mem_ctrls1.rdPerTurnAround::44-47            3      0.84%     98.89% # Reads before turning the bus around for writes
system.mem_ctrls1.rdPerTurnAround::60-63            1      0.28%     99.16% # Reads before turning the bus around for writes
system.mem_ctrls1.rdPerTurnAround::68-71            1      0.28%     99.44% # Reads before turning the bus around for writes
system.mem_ctrls1.rdPerTurnAround::72-75            1      0.28%     99.72% # Reads before turning the bus around for writes
system.mem_ctrls1.rdPerTurnAround::80-83            1      0.28%    100.00% # Reads before turning the bus around for writes
system.mem_ctrls1.rdPerTurnAround::total          359                       # Reads before turning the bus around for writes
system.mem_ctrls1.wrPerTurnAround::samples          359                       # Writes before turning the bus around for reads
system.mem_ctrls1.wrPerTurnAround::mean     21.353760                       # Writes before turning the bus around for reads
system.mem_ctrls1.wrPerTurnAround::gmean    19.448674                       # Writes before turning the bus around for reads
system.mem_ctrls1.wrPerTurnAround::stdev    12.283439                       # Writes before turning the bus around for reads
system.mem_ctrls1.wrPerTurnAround::16-17          257     71.59%     71.59% # Writes before turning the bus around for reads
system.mem_ctrls1.wrPerTurnAround::18-19           17      4.74%     76.32% # Writes before turning the bus around for reads
system.mem_ctrls1.wrPerTurnAround::20-21            4      1.11%     77.44% # Writes before turning the bus around for reads
system.mem_ctrls1.wrPerTurnAround::22-23            4      1.11%     78.55% # Writes before turning the bus around for reads
system.mem_ctrls1.wrPerTurnAround::24-25            6      1.67%     80.22% # Writes before turning the bus around for reads
system.mem_ctrls1.wrPerTurnAround::26-27            3      0.84%     81.06% # Writes before turning the bus around for reads
system.mem_ctrls1.wrPerTurnAround::28-29           15      4.18%     85.24% # Writes before turning the bus around for reads
system.mem_ctrls1.wrPerTurnAround::30-31            3      0.84%     86.07% # Writes before turning the bus around for reads
system.mem_ctrls1.wrPerTurnAround::32-33            9      2.51%     88.58% # Writes before turning the bus around for reads
system.mem_ctrls1.wrPerTurnAround::34-35            4      1.11%     89.69% # Writes before turning the bus around for reads
system.mem_ctrls1.wrPerTurnAround::36-37            4      1.11%     90.81% # Writes before turning the bus around for reads
system.mem_ctrls1.wrPerTurnAround::38-39            3      0.84%     91.64% # Writes before turning the bus around for reads
system.mem_ctrls1.wrPerTurnAround::40-41            4      1.11%     92.76% # Writes before turning the bus around for reads
system.mem_ctrls1.wrPerTurnAround::42-43            3      0.84%     93.59% # Writes before turning the bus around for reads
system.mem_ctrls1.wrPerTurnAround::44-45            4      1.11%     94.71% # Writes before turning the bus around for reads
system.mem_ctrls1.wrPerTurnAround::46-47            2      0.56%     95.26% # Writes before turning the bus around for reads
system.mem_ctrls1.wrPerTurnAround::48-49            4      1.11%     96.38% # Writes before turning the bus around for reads
system.mem_ctrls1.wrPerTurnAround::50-51            2      0.56%     96.94% # Writes before turning the bus around for reads
system.mem_ctrls1.wrPerTurnAround::54-55            1      0.28%     97.21% # Writes before turning the bus around for reads
system.mem_ctrls1.wrPerTurnAround::58-59            1      0.28%     97.49% # Writes before turning the bus around for reads
system.mem_ctrls1.wrPerTurnAround::62-63            2      0.56%     98.05% # Writes before turning the bus around for reads
system.mem_ctrls1.wrPerTurnAround::64-65            1      0.28%     98.33% # Writes before turning the bus around for reads
system.mem_ctrls1.wrPerTurnAround::66-67            1      0.28%     98.61% # Writes before turning the bus around for reads
system.mem_ctrls1.wrPerTurnAround::72-73            2      0.56%     99.16% # Writes before turning the bus around for reads
system.mem_ctrls1.wrPerTurnAround::74-75            1      0.28%     99.44% # Writes before turning the bus around for reads
system.mem_ctrls1.wrPerTurnAround::96-97            1      0.28%     99.72% # Writes before turning the bus around for reads
system.mem_ctrls1.wrPerTurnAround::110-111            1      0.28%    100.00% # Writes before turning the bus around for reads
system.mem_ctrls1.wrPerTurnAround::total          359                       # Writes before turning the bus around for reads
system.mem_ctrls1.totQLat                   463771750                       # Total ticks spent queuing
system.mem_ctrls1.totMemAccLat              565978000                       # Total ticks spent from burst creation until serviced by the DRAM
system.mem_ctrls1.totBusLat                  27255000                       # Total ticks spent in databus transfers
system.mem_ctrls1.avgQLat                    85080.12                       # Average queueing delay per DRAM burst
system.mem_ctrls1.avgBusLat                   5000.00                       # Average bus latency per DRAM burst
system.mem_ctrls1.avgMemAccLat              103830.12                       # Average memory access latency per DRAM burst
system.mem_ctrls1.avgRdBW                        1.06                       # Average DRAM read bandwidth in MiByte/s
system.mem_ctrls1.avgWrBW                        1.49                       # Average achieved write bandwidth in MiByte/s
system.mem_ctrls1.avgRdBWSys                     1.09                       # Average system read bandwidth in MiByte/s
system.mem_ctrls1.avgWrBWSys                     1.49                       # Average system write bandwidth in MiByte/s
system.mem_ctrls1.peakBW                     12800.00                       # Theoretical peak bandwidth in MiByte/s
system.mem_ctrls1.busUtil                        0.02                       # Data bus utilization in percentage
system.mem_ctrls1.busUtilRead                    0.01                       # Data bus utilization in percentage for reads
system.mem_ctrls1.busUtilWrite                   0.01                       # Data bus utilization in percentage for writes
system.mem_ctrls1.avgRdQLen                      1.00                       # Average read queue length when enqueuing
system.mem_ctrls1.avgWrQLen                     25.13                       # Average write queue length when enqueuing
system.mem_ctrls1.readRowHits                    3677                       # Number of row buffer hits during reads
system.mem_ctrls1.writeRowHits                   6084                       # Number of row buffer hits during writes
system.mem_ctrls1.readRowHitRate                67.46                       # Row buffer hit rate for reads
system.mem_ctrls1.writeRowHitRate               79.35                       # Row buffer hit rate for writes
system.mem_ctrls1.avgGap                  22418815.32                       # Average gap between requests
system.mem_ctrls1.pageHitRate                   74.41                       # Row buffer hit rate, read and write combined
system.mem_ctrls1_0.actEnergy                51086700                       # Energy for activate commands per rank (pJ)
system.mem_ctrls1_0.preEnergy                27153225                       # Energy for precharge commands per rank (pJ)
system.mem_ctrls1_0.readEnergy              140636580                       # Energy for read commands per rank (pJ)
system.mem_ctrls1_0.writeEnergy              39745080                       # Energy for write commands per rank (pJ)
system.mem_ctrls1_0.refreshEnergy        5710620240.000001                       # Energy for refresh commands per rank (pJ)
system.mem_ctrls1_0.actBackEnergy          1756396290                       # Energy for active background per rank (pJ)
system.mem_ctrls1_0.preBackEnergy           340082880                       # Energy for precharge background per rank (pJ)
system.mem_ctrls1_0.actPowerDownEnergy    14208426480                       # Energy for active power-down per rank (pJ)
system.mem_ctrls1_0.prePowerDownEnergy     7933371360                       # Energy for precharge power-down per rank (pJ)
system.mem_ctrls1_0.selfRefreshEnergy    1321415246775                       # Energy for self refresh per rank (pJ)
system.mem_ctrls1_0.totalEnergy          1351623881430                       # Total energy per rank (pJ)
system.mem_ctrls1_0.averagePower           243.209745                       # Core power per rank (mW)
system.mem_ctrls1_0.totalIdleTime        285326299500                       # Total Idle time Per DRAM Rank
system.mem_ctrls1_0.memoryStateTime::IDLE    164237500                       # Time in different power states
system.mem_ctrls1_0.memoryStateTime::REF    473020000                       # Time in different power states
system.mem_ctrls1_0.memoryStateTime::SREF 322104838500                       # Time in different power states
system.mem_ctrls1_0.memoryStateTime::PRE_PDN   4305473750                       # Time in different power states
system.mem_ctrls1_0.memoryStateTime::ACT    543856500                       # Time in different power states
system.mem_ctrls1_0.memoryStateTime::ACT_PDN   5038329750                       # Time in different power states
system.mem_ctrls1_1.actEnergy                46060140                       # Energy for activate commands per rank (pJ)
system.mem_ctrls1_1.preEnergy                24481545                       # Energy for precharge commands per rank (pJ)
system.mem_ctrls1_1.readEnergy              138980100                       # Energy for read commands per rank (pJ)
system.mem_ctrls1_1.writeEnergy              41514660                       # Energy for write commands per rank (pJ)
system.mem_ctrls1_1.refreshEnergy        5087989920.000001                       # Energy for refresh commands per rank (pJ)
system.mem_ctrls1_1.actBackEnergy          1712059980                       # Energy for active background per rank (pJ)
system.mem_ctrls1_1.preBackEnergy           279128160                       # Energy for precharge background per rank (pJ)
system.mem_ctrls1_1.actPowerDownEnergy    13089477720                       # Energy for active power-down per rank (pJ)
system.mem_ctrls1_1.prePowerDownEnergy     6766397760                       # Energy for precharge power-down per rank (pJ)
system.mem_ctrls1_1.selfRefreshEnergy    1322632075680                       # Energy for self refresh per rank (pJ)
system.mem_ctrls1_1.totalEnergy          1349819366235                       # Total energy per rank (pJ)
system.mem_ctrls1_1.averagePower           242.885042                       # Core power per rank (mW)
system.mem_ctrls1_1.totalIdleTime        296839979000                       # Total Idle time Per DRAM Rank
system.mem_ctrls1_1.memoryStateTime::IDLE    128458000                       # Time in different power states
system.mem_ctrls1_1.memoryStateTime::REF    441036000                       # Time in different power states
system.mem_ctrls1_1.memoryStateTime::SREF 322500528250                       # Time in different power states
system.mem_ctrls1_1.memoryStateTime::PRE_PDN   3905847500                       # Time in different power states
system.mem_ctrls1_1.memoryStateTime::ACT    669680750                       # Time in different power states
system.mem_ctrls1_1.memoryStateTime::ACT_PDN   4756234000                       # Time in different power states
system.mem_ctrls2.pwrStateResidencyTicks::UNDEFINED 5557441302500                       # Cumulative time (in ticks) in various power states
system.mem_ctrls2.bytes_read::ruby.dir_cntrl2       358016                       # Number of bytes read from this memory
system.mem_ctrls2.bytes_read::total            358016                       # Number of bytes read from this memory
system.mem_ctrls2.bytes_written::ruby.dir_cntrl2       480192                       # Number of bytes written to this memory
system.mem_ctrls2.bytes_written::total         480192                       # Number of bytes written to this memory
system.mem_ctrls2.num_reads::ruby.dir_cntrl2         5594                       # Number of read requests responded to by this memory
system.mem_ctrls2.num_reads::total               5594                       # Number of read requests responded to by this memory
system.mem_ctrls2.num_writes::ruby.dir_cntrl2         7503                       # Number of write requests responded to by this memory
system.mem_ctrls2.num_writes::total              7503                       # Number of write requests responded to by this memory
system.mem_ctrls2.bw_read::ruby.dir_cntrl2      1088045                       # Total read bandwidth from this memory (bytes/s)
system.mem_ctrls2.bw_read::total              1088045                       # Total read bandwidth from this memory (bytes/s)
system.mem_ctrls2.bw_write::ruby.dir_cntrl2      1459350                       # Write bandwidth from this memory (bytes/s)
system.mem_ctrls2.bw_write::total             1459350                       # Write bandwidth from this memory (bytes/s)
system.mem_ctrls2.bw_total::ruby.dir_cntrl2      2547395                       # Total bandwidth to/from this memory (bytes/s)
system.mem_ctrls2.bw_total::total             2547395                       # Total bandwidth to/from this memory (bytes/s)
system.mem_ctrls2.readReqs                       5594                       # Number of read requests accepted
system.mem_ctrls2.writeReqs                      7503                       # Number of write requests accepted
system.mem_ctrls2.readBursts                     5594                       # Number of DRAM read bursts, including those serviced by the write queue
system.mem_ctrls2.writeBursts                    7503                       # Number of DRAM write bursts, including those merged in the write queue
system.mem_ctrls2.bytesReadDRAM                346048                       # Total number of bytes read from DRAM
system.mem_ctrls2.bytesReadWrQ                  11968                       # Total number of bytes read from write queue
system.mem_ctrls2.bytesWritten                 480000                       # Total number of bytes written to DRAM
system.mem_ctrls2.bytesReadSys                 358016                       # Total read bytes from the system interface side
system.mem_ctrls2.bytesWrittenSys              480192                       # Total written bytes from the system interface side
system.mem_ctrls2.servicedByWrQ                   187                       # Number of DRAM read bursts serviced by the write queue
system.mem_ctrls2.mergedWrBursts                    0                       # Number of DRAM write bursts merged with an existing one
system.mem_ctrls2.neitherReadNorWriteReqs            0                       # Number of requests that are neither read nor write
system.mem_ctrls2.perBankRdBursts::0              377                       # Per bank write bursts
system.mem_ctrls2.perBankRdBursts::1              364                       # Per bank write bursts
system.mem_ctrls2.perBankRdBursts::2              318                       # Per bank write bursts
system.mem_ctrls2.perBankRdBursts::3              402                       # Per bank write bursts
system.mem_ctrls2.perBankRdBursts::4              360                       # Per bank write bursts
system.mem_ctrls2.perBankRdBursts::5              282                       # Per bank write bursts
system.mem_ctrls2.perBankRdBursts::6              323                       # Per bank write bursts
system.mem_ctrls2.perBankRdBursts::7              289                       # Per bank write bursts
system.mem_ctrls2.perBankRdBursts::8              171                       # Per bank write bursts
system.mem_ctrls2.perBankRdBursts::9              223                       # Per bank write bursts
system.mem_ctrls2.perBankRdBursts::10             322                       # Per bank write bursts
system.mem_ctrls2.perBankRdBursts::11             407                       # Per bank write bursts
system.mem_ctrls2.perBankRdBursts::12             430                       # Per bank write bursts
system.mem_ctrls2.perBankRdBursts::13             324                       # Per bank write bursts
system.mem_ctrls2.perBankRdBursts::14             398                       # Per bank write bursts
system.mem_ctrls2.perBankRdBursts::15             417                       # Per bank write bursts
system.mem_ctrls2.perBankWrBursts::0              551                       # Per bank write bursts
system.mem_ctrls2.perBankWrBursts::1              512                       # Per bank write bursts
system.mem_ctrls2.perBankWrBursts::2              440                       # Per bank write bursts
system.mem_ctrls2.perBankWrBursts::3              351                       # Per bank write bursts
system.mem_ctrls2.perBankWrBursts::4              258                       # Per bank write bursts
system.mem_ctrls2.perBankWrBursts::5              307                       # Per bank write bursts
system.mem_ctrls2.perBankWrBursts::6              310                       # Per bank write bursts
system.mem_ctrls2.perBankWrBursts::7              469                       # Per bank write bursts
system.mem_ctrls2.perBankWrBursts::8              653                       # Per bank write bursts
system.mem_ctrls2.perBankWrBursts::9              667                       # Per bank write bursts
system.mem_ctrls2.perBankWrBursts::10             642                       # Per bank write bursts
system.mem_ctrls2.perBankWrBursts::11             599                       # Per bank write bursts
system.mem_ctrls2.perBankWrBursts::12             525                       # Per bank write bursts
system.mem_ctrls2.perBankWrBursts::13             421                       # Per bank write bursts
system.mem_ctrls2.perBankWrBursts::14             404                       # Per bank write bursts
system.mem_ctrls2.perBankWrBursts::15             391                       # Per bank write bursts
system.mem_ctrls2.numRdRetry                        0                       # Number of times read queue was full causing retry
system.mem_ctrls2.numWrRetry                       38                       # Number of times write queue was full causing retry
system.mem_ctrls2.totGap                 296712889500                       # Total gap between requests
system.mem_ctrls2.readPktSize::0                    0                       # Read request sizes (log2)
system.mem_ctrls2.readPktSize::1                    0                       # Read request sizes (log2)
system.mem_ctrls2.readPktSize::2                    0                       # Read request sizes (log2)
system.mem_ctrls2.readPktSize::3                    0                       # Read request sizes (log2)
system.mem_ctrls2.readPktSize::4                    0                       # Read request sizes (log2)
system.mem_ctrls2.readPktSize::5                    0                       # Read request sizes (log2)
system.mem_ctrls2.readPktSize::6                 5594                       # Read request sizes (log2)
system.mem_ctrls2.writePktSize::0                   0                       # Write request sizes (log2)
system.mem_ctrls2.writePktSize::1                   0                       # Write request sizes (log2)
[...]
system.ruby.L1Cache_Controller.IS.Load::total           29                      
system.ruby.L1Cache_Controller.IS.Ifetch |          37    100.00%    100.00% |           0      0.00%    100.00% |           0      0.00%    100.00% |           0      0.00%    100.00% |           0      0.00%    100.00% |           0      0.00%    100.00% |           0      0.00%    100.00% |           0      0.00%    100.00%
system.ruby.L1Cache_Controller.IS.Ifetch::total           37                      
system.ruby.L1Cache_Controller.IS.Data_Exclusive |      440991    100.00%    100.00% |           0      0.00%    100.00% |           0      0.00%    100.00% |           0      0.00%    100.00% |           0      0.00%    100.00% |           0      0.00%    100.00% |           0      0.00%    100.00% |           0      0.00%    100.00%
system.ruby.L1Cache_Controller.IS.Data_Exclusive::total       440991                      
system.ruby.L1Cache_Controller.IS.Data_all_Acks |      772113    100.00%    100.00% |           0      0.00%    100.00% |           0      0.00%    100.00% |           0      0.00%    100.00% |           0      0.00%    100.00% |           0      0.00%    100.00% |           0      0.00%    100.00% |           0      0.00%    100.00%
system.ruby.L1Cache_Controller.IS.Data_all_Acks::total       772113                      
system.ruby.L1Cache_Controller.IS.WB_Ack |     1123270    100.00%    100.00% |           0      0.00%    100.00% |           0      0.00%    100.00% |           0      0.00%    100.00% |           0      0.00%    100.00% |           0      0.00%    100.00% |           0      0.00%    100.00% |           0      0.00%    100.00%
system.ruby.L1Cache_Controller.IS.WB_Ack::total      1123270                      
system.ruby.L1Cache_Controller.IS.PF_Load |      440511    100.00%    100.00% |           0      0.00%    100.00% |           0      0.00%    100.00% |           0      0.00%    100.00% |           0      0.00%    100.00% |           0      0.00%    100.00% |           0      0.00%    100.00% |           0      0.00%    100.00%
system.ruby.L1Cache_Controller.IS.PF_Load::total       440511                      
system.ruby.L1Cache_Controller.IS.PF_Ifetch |      771416    100.00%    100.00% |           0      0.00%    100.00% |           0      0.00%    100.00% |           0      0.00%    100.00% |           0      0.00%    100.00% |           0      0.00%    100.00% |           0      0.00%    100.00% |           0      0.00%    100.00%
system.ruby.L1Cache_Controller.IS.PF_Ifetch::total       771416                      
system.ruby.L1Cache_Controller.IM.Data_all_Acks |      384971    100.00%    100.00% |           0      0.00%    100.00% |           0      0.00%    100.00% |           0      0.00%    100.00% |           0      0.00%    100.00% |           0      0.00%    100.00% |           0      0.00%    100.00% |           0      0.00%    100.00%
system.ruby.L1Cache_Controller.IM.Data_all_Acks::total       384971                      
system.ruby.L1Cache_Controller.IM.PF_Store |      295271    100.00%    100.00% |           0      0.00%    100.00% |           0      0.00%    100.00% |           0      0.00%    100.00% |           0      0.00%    100.00% |           0      0.00%    100.00% |           0      0.00%    100.00% |           0      0.00%    100.00%
system.ruby.L1Cache_Controller.IM.PF_Store::total       295271                      
system.ruby.L1Cache_Controller.SM.Fwd_GETX |       89693    100.00%    100.00% |           0      0.00%    100.00% |           0      0.00%    100.00% |           0      0.00%    100.00% |           0      0.00%    100.00% |           0      0.00%    100.00% |           0      0.00%    100.00% |           0      0.00%    100.00%
system.ruby.L1Cache_Controller.SM.Fwd_GETX::total        89693                      
system.ruby.L1Cache_Controller.M_I.WB_Ack |      384975    100.00%    100.00% |           0      0.00%    100.00% |           0      0.00%    100.00% |           0      0.00%    100.00% |           0      0.00%    100.00% |           0      0.00%    100.00% |           0      0.00%    100.00% |           0      0.00%    100.00%
system.ruby.L1Cache_Controller.M_I.WB_Ack::total       384975                      
system.ruby.L2Cache_Controller.L1_GET_INSTR |       59378      7.69%      7.69% |       55212      7.15%     14.84% |       51930      6.73%     21.57% |      154074     19.96%     41.53% |      151187     19.58%     61.11% |      160589     20.80%     81.91% |       75016      9.72%     91.63% |       64612      8.37%    100.00%
system.ruby.L2Cache_Controller.L1_GET_INSTR::total       771998                      
system.ruby.L2Cache_Controller.L1_GETS   |       70627     16.01%     16.01% |       54731     12.41%     28.42% |       55579     12.60%     41.02% |       53335     12.09%     53.11% |       51953     11.78%     64.89% |       50394     11.42%     76.31% |       49954     11.32%     87.64% |       54533     12.36%    100.00%
system.ruby.L2Cache_Controller.L1_GETS::total       441106                      
system.ruby.L2Cache_Controller.L1_GETX   |       53530     13.90%     13.90% |       47468     12.33%     26.24% |       48276     12.54%     38.78% |       47664     12.38%     51.16% |       46125     11.98%     63.14% |       48136     12.50%     75.64% |       46123     11.98%     87.62% |       47649     12.38%    100.00%
system.ruby.L2Cache_Controller.L1_GETX::total       384971                      
system.ruby.L2Cache_Controller.L1_PUTX   |      168171     11.15%     11.15% |      146551      9.72%     20.87% |      144875      9.61%     30.47% |      244531     16.21%     46.69% |      239003     15.85%     62.53% |      248916     16.50%     79.04% |      161089     10.68%     89.72% |      155109     10.28%    100.00%
system.ruby.L2Cache_Controller.L1_PUTX::total      1508245                      
system.ruby.L2Cache_Controller.L2_Replacement |        4260     12.63%     12.63% |        4385     13.00%     25.63% |        4221     12.51%     38.14% |        4271     12.66%     50.80% |        4157     12.32%     63.13% |        4209     12.48%     75.61% |        4054     12.02%     87.63% |        4174     12.37%    100.00%
system.ruby.L2Cache_Controller.L2_Replacement::total        33731                      
system.ruby.L2Cache_Controller.L2_Replacement_clean |         105     12.71%     12.71% |         100     12.11%     24.82% |         102     12.35%     37.17% |         106     12.83%     50.00% |         110     13.32%     63.32% |          99     11.99%     75.30% |         100     12.11%     87.41% |         104     12.59%    100.00%
system.ruby.L2Cache_Controller.L2_Replacement_clean::total          826                      
system.ruby.L2Cache_Controller.Mem_Data  |        5758     12.86%     12.86% |        5629     12.57%     25.43% |        5594     12.49%     37.92% |        5568     12.43%     50.35% |        5546     12.38%     62.73% |        5548     12.39%     75.12% |        5566     12.43%     87.55% |        5576     12.45%    100.00%
system.ruby.L2Cache_Controller.Mem_Data::total        44785                      
system.ruby.L2Cache_Controller.Mem_Ack   |        4667     12.98%     12.98% |        4652     12.94%     25.92% |        4477     12.45%     38.37% |        4531     12.60%     50.97% |        4421     12.29%     63.26% |        4462     12.41%     75.67% |        4310     11.99%     87.66% |        4438     12.34%    100.00%
system.ruby.L2Cache_Controller.Mem_Ack::total        35958                      
system.ruby.L2Cache_Controller.WB_Data   |         135     99.26%     99.26% |           0      0.00%     99.26% |           0      0.00%     99.26% |           0      0.00%     99.26% |           0      0.00%     99.26% |           0      0.00%     99.26% |           1      0.74%    100.00% |           0      0.00%    100.00%
system.ruby.L2Cache_Controller.WB_Data::total          136                      
system.ruby.L2Cache_Controller.Ack_all   |          37     13.65%     13.65% |          33     12.18%     25.83% |          32     11.81%     37.64% |          31     11.44%     49.08% |          34     12.55%     61.62% |          31     11.44%     73.06% |          33     12.18%     85.24% |          40     14.76%    100.00%
system.ruby.L2Cache_Controller.Ack_all::total          271                      
system.ruby.L2Cache_Controller.Unblock   |      124157     15.03%     15.03% |      102197     12.37%     27.40% |      103779     12.56%     39.97% |      100971     12.22%     52.19% |       98077     11.87%     64.07% |       98529     11.93%     76.00% |       96071     11.63%     87.63% |      102181     12.37%    100.00%
system.ruby.L2Cache_Controller.Unblock::total       825962                      
system.ruby.L2Cache_Controller.MEM_Inv   |         604     21.56%     21.56% |         334     11.92%     33.48% |         308     10.99%     44.47% |         308     10.99%     55.46% |         308     10.99%     66.45% |         308     10.99%     77.44% |         312     11.13%     88.58% |         320     11.42%    100.00%
system.ruby.L2Cache_Controller.MEM_Inv::total         2802                      
system.ruby.L2Cache_Controller.NP.L1_GET_INSTR |         352     12.20%     12.20% |         373     12.93%     25.13% |         378     13.10%     38.23% |         354     12.27%     50.50% |         338     11.72%     62.22% |         346     11.99%     74.21% |         367     12.72%     86.93% |         377     13.07%    100.00%
system.ruby.L2Cache_Controller.NP.L1_GET_INSTR::total         2885                      
system.ruby.L2Cache_Controller.NP.L1_GETS |        1118     12.99%     12.99% |        1097     12.75%     25.74% |        1073     12.47%     38.21% |        1068     12.41%     50.62% |        1088     12.64%     63.26% |        1057     12.28%     75.54% |        1051     12.21%     87.75% |        1054     12.25%    100.00%
system.ruby.L2Cache_Controller.NP.L1_GETS::total         8606                      
system.ruby.L2Cache_Controller.NP.L1_GETX |        4288     12.88%     12.88% |        4159     12.49%     25.37% |        4143     12.44%     37.81% |        4146     12.45%     50.27% |        4120     12.37%     62.64% |        4145     12.45%     75.09% |        4148     12.46%     87.55% |        4145     12.45%    100.00%
system.ruby.L2Cache_Controller.NP.L1_GETX::total        33294                      
system.ruby.L2Cache_Controller.SS.L1_GET_INSTR |       59025      7.67%      7.67% |       54839      7.13%     14.80% |       51549      6.70%     21.51% |      153720     19.99%     41.49% |      150848     19.61%     61.11% |      160241     20.83%     81.94% |       74647      9.71%     91.65% |       64235      8.35%    100.00%
system.ruby.L2Cache_Controller.SS.L1_GET_INSTR::total       769104                      
system.ruby.L2Cache_Controller.SS.L1_GETS |           0      0.00%      0.00% |           2      1.74%      1.74% |          76     66.09%     67.83% |          28     24.35%     92.17% |           1      0.87%     93.04% |           1      0.87%     93.91% |           6      5.22%     99.13% |           1      0.87%    100.00%
system.ruby.L2Cache_Controller.SS.L1_GETS::total          115                      
system.ruby.L2Cache_Controller.SS.L1_PUTX |       59378      7.69%      7.69% |       55214      7.15%     14.84% |       52007      6.74%     21.58% |      154102     19.96%     41.54% |      151188     19.58%     61.12% |      160590     20.80%     81.92% |       75022      9.72%     91.63% |       64613      8.37%    100.00%
system.ruby.L2Cache_Controller.SS.L1_PUTX::total       772114                      
system.ruby.L2Cache_Controller.SS.L2_Replacement_clean |          37     13.65%     13.65% |          33     12.18%     25.83% |          32     11.81%     37.64% |          31     11.44%     49.08% |          34     12.55%     61.62% |          31     11.44%     73.06% |          33     12.18%     85.24% |          40     14.76%    100.00%
system.ruby.L2Cache_Controller.SS.L2_Replacement_clean::total          271                      
system.ruby.L2Cache_Controller.M.L1_GET_INSTR |           1     11.11%     11.11% |           0      0.00%     11.11% |           3     33.33%     44.44% |           0      0.00%     44.44% |           1     11.11%     55.56% |           2     22.22%     77.78% |           2     22.22%    100.00% |           0      0.00%    100.00%
system.ruby.L2Cache_Controller.M.L1_GET_INSTR::total            9                      
system.ruby.L2Cache_Controller.M.L1_GETS |       69509     16.08%     16.08% |       53632     12.40%     28.48% |       54430     12.59%     41.07% |       52239     12.08%     53.15% |       50864     11.76%     64.91% |       49336     11.41%     76.32% |       48897     11.31%     87.63% |       53478     12.37%    100.00%
system.ruby.L2Cache_Controller.M.L1_GETS::total       432385                      
system.ruby.L2Cache_Controller.M.L1_GETX |       34013     12.98%     12.98% |       32450     12.39%     25.37% |       33223     12.68%     38.05% |       32976     12.59%     50.64% |       31743     12.12%     62.75% |       33788     12.90%     75.65% |       31972     12.20%     87.85% |       31819     12.15%    100.00%
system.ruby.L2Cache_Controller.M.L1_GETX::total       261984                      
system.ruby.L2Cache_Controller.M.L2_Replacement |        4260     12.63%     12.63% |        4385     13.00%     25.63% |        4221     12.51%     38.14% |        4271     12.66%     50.80% |        4157     12.32%     63.13% |        4209     12.48%     75.61% |        4054     12.02%     87.63% |        4174     12.37%    100.00%
system.ruby.L2Cache_Controller.M.L2_Replacement::total        33731                      
system.ruby.L2Cache_Controller.M.L2_Replacement_clean |          68     12.25%     12.25% |          67     12.07%     24.32% |          70     12.61%     36.94% |          75     13.51%     50.45% |          76     13.69%     64.14% |          68     12.25%     76.40% |          67     12.07%     88.47% |          64     11.53%    100.00%
system.ruby.L2Cache_Controller.M.L2_Replacement_clean::total          555                      
system.ruby.L2Cache_Controller.M.MEM_Inv |         167     13.20%     13.20% |         167     13.20%     26.40% |         154     12.17%     38.58% |         154     12.17%     50.75% |         154     12.17%     62.92% |         154     12.17%     75.10% |         155     12.25%     87.35% |         160     12.65%    100.00%
system.ruby.L2Cache_Controller.M.MEM_Inv::total         1265                      
system.ruby.L2Cache_Controller.MT.L1_GETX |       15229     16.98%     16.98% |       10859     12.11%     29.09% |       10910     12.16%     41.25% |       10542     11.75%     53.00% |       10262     11.44%     64.44% |       10203     11.38%     75.82% |       10003     11.15%     86.97% |       11685     13.03%    100.00%
system.ruby.L2Cache_Controller.MT.L1_GETX::total        89693                      
system.ruby.L2Cache_Controller.MT.L1_PUTX |      108793     14.78%     14.78% |       91337     12.41%     27.19% |       92868     12.62%     39.80% |       90429     12.28%     52.09% |       87815     11.93%     64.02% |       88326     12.00%     76.01% |       86067     11.69%     87.71% |       90496     12.29%    100.00%
system.ruby.L2Cache_Controller.MT.L1_PUTX::total       736131                      
system.ruby.L2Cache_Controller.MT.MEM_Inv |         135     99.26%     99.26% |           0      0.00%     99.26% |           0      0.00%     99.26% |           0      0.00%     99.26% |           0      0.00%     99.26% |           0      0.00%     99.26% |           1      0.74%    100.00% |           0      0.00%    100.00%
system.ruby.L2Cache_Controller.MT.MEM_Inv::total          136                      
system.ruby.L2Cache_Controller.M_I.Mem_Ack |        4667     12.98%     12.98% |        4652     12.94%     25.92% |        4477     12.45%     38.37% |        4531     12.60%     50.97% |        4421     12.29%     63.26% |        4462     12.41%     75.67% |        4310     11.99%     87.66% |        4438     12.34%    100.00%
system.ruby.L2Cache_Controller.M_I.Mem_Ack::total        35958                      
system.ruby.L2Cache_Controller.M_I.MEM_Inv |         167     13.20%     13.20% |         167     13.20%     26.40% |         154     12.17%     38.58% |         154     12.17%     50.75% |         154     12.17%     62.92% |         154     12.17%     75.10% |         155     12.25%     87.35% |         160     12.65%    100.00%
system.ruby.L2Cache_Controller.M_I.MEM_Inv::total         1265                      
system.ruby.L2Cache_Controller.MT_I.WB_Data |         135     99.26%     99.26% |           0      0.00%     99.26% |           0      0.00%     99.26% |           0      0.00%     99.26% |           0      0.00%     99.26% |           0      0.00%     99.26% |           1      0.74%    100.00% |           0      0.00%    100.00%
system.ruby.L2Cache_Controller.MT_I.WB_Data::total          136                      
system.ruby.L2Cache_Controller.MT_I.MEM_Inv |         135     99.26%     99.26% |           0      0.00%     99.26% |           0      0.00%     99.26% |           0      0.00%     99.26% |           0      0.00%     99.26% |           0      0.00%     99.26% |           1      0.74%    100.00% |           0      0.00%    100.00%
system.ruby.L2Cache_Controller.MT_I.MEM_Inv::total          136                      
system.ruby.L2Cache_Controller.I_I.Ack_all |          37     13.65%     13.65% |          33     12.18%     25.83% |          32     11.81%     37.64% |          31     11.44%     49.08% |          34     12.55%     61.62% |          31     11.44%     73.06% |          33     12.18%     85.24% |          40     14.76%    100.00%
system.ruby.L2Cache_Controller.I_I.Ack_all::total          271                      
system.ruby.L2Cache_Controller.ISS.Mem_Data |        1118     12.99%     12.99% |        1097     12.75%     25.74% |        1073     12.47%     38.21% |        1068     12.41%     50.62% |        1088     12.64%     63.26% |        1057     12.28%     75.54% |        1051     12.21%     87.75% |        1054     12.25%    100.00%
system.ruby.L2Cache_Controller.ISS.Mem_Data::total         8606                      
system.ruby.L2Cache_Controller.IS.Mem_Data |         352     12.20%     12.20% |         373     12.93%     25.13% |         378     13.10%     38.23% |         354     12.27%     50.50% |         338     11.72%     62.22% |         346     11.99%     74.21% |         367     12.72%     86.93% |         377     13.07%    100.00%
system.ruby.L2Cache_Controller.IS.Mem_Data::total         2885                      
system.ruby.L2Cache_Controller.IM.Mem_Data |        4288     12.88%     12.88% |        4159     12.49%     25.37% |        4143     12.44%     37.81% |        4146     12.45%     50.27% |        4120     12.37%     62.64% |        4145     12.45%     75.09% |        4148     12.46%     87.55% |        4145     12.45%    100.00%
system.ruby.L2Cache_Controller.IM.Mem_Data::total        33294                      
system.ruby.L2Cache_Controller.MT_MB.Unblock |      124157     15.03%     15.03% |      102197     12.37%     27.40% |      103779     12.56%     39.97% |      100971     12.22%     52.19% |       98077     11.87%     64.07% |       98529     11.93%     76.00% |       96071     11.63%     87.63% |      102181     12.37%    100.00%
system.ruby.L2Cache_Controller.MT_MB.Unblock::total       825962                      

---------- End Simulation Statistics   ----------
