
---------- Begin Simulation Statistics ----------
sim_seconds                                  0.338820                       # Number of seconds simulated
sim_ticks                                338820000500                       # Number of ticks simulated
final_tick                               5567216890500                       # Number of ticks from beginning of simulation (restored from checkpoints and never reset)
sim_freq                                 1000000000000                       # Frequency of simulated ticks
host_inst_rate                                 743785                       # Simulator instruction rate (inst/s)
host_op_rate                                  1362301                       # Simulator op (including micro ops) rate (op/s)
host_tick_rate                              840030579                       # Simulator tick rate (ticks/s)
host_mem_usage                                6076736                       # Number of bytes of host memory used
host_seconds                                   403.34                       # Real time elapsed on the host
sim_insts                                   300000001                       # Number of instructions simulated
sim_ops                                     549473803                       # Number of ops (including micro ops) simulated
system.voltage_domain.voltage                       1                       # Voltage in Volts
system.clk_domain.clock                          1000                       # Clock period in ticks
system.mem_ctrls0.pwrStateResidencyTicks::UNDEFINED 5567216890500                       # Cumulative time (in ticks) in various power states
system.mem_ctrls0.bytes_read::ruby.dir_cntrl0      2027008                       # Number of bytes read from this memory
system.mem_ctrls0.bytes_read::total           2027008                       # Number of bytes read from this memory
system.mem_ctrls0.bytes_written::ruby.dir_cntrl0      2375296                       # Number of bytes written to this memory
system.mem_ctrls0.bytes_written::total        2375296                       # Number of bytes written to this memory
system.mem_ctrls0.num_reads::ruby.dir_cntrl0        31672                       # Number of read requests responded to by this memory
system.mem_ctrls0.num_reads::total              31672                       # Number of read requests responded to by this memory
system.mem_ctrls0.num_writes::ruby.dir_cntrl0        37114                       # Number of write requests responded to by this memory
system.mem_ctrls0.num_writes::total             37114                       # Number of write requests responded to by this memory
system.mem_ctrls0.bw_read::ruby.dir_cntrl0      5982551                       # Total read bandwidth from this memory (bytes/s)
system.mem_ctrls0.bw_read::total              5982551                       # Total read bandwidth from this memory (bytes/s)
system.mem_ctrls0.bw_write::ruby.dir_cntrl0      7010495                       # Write bandwidth from this memory (bytes/s)
system.mem_ctrls0.bw_write::total             7010495                       # Write bandwidth from this memory (bytes/s)
system.mem_ctrls0.bw_total::ruby.dir_cntrl0     12993046                       # Total bandwidth to/from this memory (bytes/s)
system.mem_ctrls0.bw_total::total            12993046                       # Total bandwidth to/from this memory (bytes/s)
system.mem_ctrls0.readReqs                      31672                       # Number of read requests accepted
system.mem_ctrls0.writeReqs                     37114                       # Number of write requests accepted
system.mem_ctrls0.readBursts                    31672                       # Number of DRAM read bursts, including those serviced by the write queue
system.mem_ctrls0.writeBursts                   37114                       # Number of DRAM write bursts, including those merged in the write queue
system.mem_ctrls0.bytesReadDRAM               2003328                       # Total number of bytes read from DRAM
system.mem_ctrls0.bytesReadWrQ                  23680                       # Total number of bytes read from write queue
system.mem_ctrls0.bytesWritten                2369088                       # Total number of bytes written to DRAM
system.mem_ctrls0.bytesReadSys                2027008                       # Total read bytes from the system interface side
system.mem_ctrls0.bytesWrittenSys             2375296                       # Total written bytes from the system interface side
system.mem_ctrls0.servicedByWrQ                   370                       # Number of DRAM read bursts serviced by the write queue
system.mem_ctrls0.mergedWrBursts                   97                       # Number of DRAM write bursts merged with an existing one
system.mem_ctrls0.neitherReadNorWriteReqs            0                       # Number of requests that are neither read nor write
system.mem_ctrls0.perBankRdBursts::0             2082                       # Per bank write bursts
system.mem_ctrls0.perBankRdBursts::1             2046                       # Per bank write bursts
system.mem_ctrls0.perBankRdBursts::2             2014                       # Per bank write bursts
system.mem_ctrls0.perBankRdBursts::3             1973                       # Per bank write bursts
system.mem_ctrls0.perBankRdBursts::4             1842                       # Per bank write bursts
system.mem_ctrls0.perBankRdBursts::5             1942                       # Per bank write bursts
system.mem_ctrls0.perBankRdBursts::6             1895                       # Per bank write bursts
system.mem_ctrls0.perBankRdBursts::7             1885                       # Per bank write bursts
system.mem_ctrls0.perBankRdBursts::8             2073                       # Per bank write bursts
system.mem_ctrls0.perBankRdBursts::9             1945                       # Per bank write bursts
system.mem_ctrls0.perBankRdBursts::10            1937                       # Per bank write bursts
system.mem_ctrls0.perBankRdBursts::11            1863                       # Per bank write bursts
system.mem_ctrls0.perBankRdBursts::12            1758                       # Per bank write bursts
system.mem_ctrls0.perBankRdBursts::13            1845                       # Per bank write bursts
system.mem_ctrls0.perBankRdBursts::14            2082                       # Per bank write bursts
system.mem_ctrls0.perBankRdBursts::15            2120                       # Per bank write bursts
system.mem_ctrls0.perBankWrBursts::0             2423                       # Per bank write bursts
system.mem_ctrls0.perBankWrBursts::1             2271                       # Per bank write bursts
system.mem_ctrls0.perBankWrBursts::2             2337                       # Per bank write bursts
system.mem_ctrls0.perBankWrBursts::3             2296                       # Per bank write bursts
system.mem_ctrls0.perBankWrBursts::4             2223                       # Per bank write bursts
system.mem_ctrls0.perBankWrBursts::5             2119                       # Per bank write bursts
system.mem_ctrls0.perBankWrBursts::6             2123                       # Per bank write bursts
system.mem_ctrls0.perBankWrBursts::7             2248                       # Per bank write bursts
system.mem_ctrls0.perBankWrBursts::8             2438                       # Per bank write bursts
system.mem_ctrls0.perBankWrBursts::9             2410                       # Per bank write bursts
system.mem_ctrls0.perBankWrBursts::10            2529                       # Per bank write bursts
system.mem_ctrls0.perBankWrBursts::11            2455                       # Per bank write bursts
system.mem_ctrls0.perBankWrBursts::12            2215                       # Per bank write bursts
system.mem_ctrls0.perBankWrBursts::13            2415                       # Per bank write bursts
system.mem_ctrls0.perBankWrBursts::14            2320                       # Per bank write bursts
system.mem_ctrls0.perBankWrBursts::15            2195                       # Per bank write bursts
system.mem_ctrls0.numRdRetry                        0                       # Number of times read queue was full causing retry
system.mem_ctrls0.numWrRetry                       30                       # Number of times write queue was full causing retry
system.mem_ctrls0.totGap                 338419773500                       # Total gap between requests
system.mem_ctrls0.readPktSize::0                    0                       # Read request sizes (log2)
system.mem_ctrls0.readPktSize::1                    0                       # Read request sizes (log2)
system.mem_ctrls0.readPktSize::2                    0                       # Read request sizes (log2)
system.mem_ctrls0.readPktSize::3                    0                       # Read request sizes (log2)
system.mem_ctrls0.readPktSize::4                    0                       # Read request sizes (log2)
system.mem_ctrls0.readPktSize::5                    0                       # Read request sizes (log2)
system.mem_ctrls0.readPktSize::6                31672                       # Read request sizes (log2)
system.mem_ctrls0.writePktSize::0                   0                       # Write request sizes (log2)
system.mem_ctrls0.writePktSize::1                   0                       # Write request sizes (log2)
system.mem_ctrls0.writePktSize::2                   0                       # Write request sizes (log2)
system.mem_ctrls0.writePktSize::3                   0                       # Write request sizes (log2)
system.mem_ctrls0.writePktSize::4                   0                       # Write request sizes (log2)
system.mem_ctrls0.writePktSize::5                   0                       # Write request sizes (log2)
system.mem_ctrls0.writePktSize::6               37114                       # Write request sizes (log2)
system.mem_ctrls0.rdQLenPdf::0                  31299                       # What read queue length does an incoming req see
system.mem_ctrls0.rdQLenPdf::1                      3                       # What read queue length does an incoming req see
system.mem_ctrls0.rdQLenPdf::2                      0                       # What read queue length does an incoming req see
system.mem_ctrls0.rdQLenPdf::3                      0                       # What read queue length does an incoming req see
system.mem_ctrls0.rdQLenPdf::4                      0                       # What read queue length does an incoming req see
system.mem_ctrls0.rdQLenPdf::5                      0                       # What read queue length does an incoming req see
system.mem_ctrls0.rdQLenPdf::6                      0                       # What read queue length does an incoming req see
system.mem_ctrls0.rdQLenPdf::7                      0                       # What read queue length does an incoming req see
system.mem_ctrls0.rdQLenPdf::8                      0                       # What read queue length does an incoming req see
system.mem_ctrls0.rdQLenPdf::9                      0                       # What read queue length does an incoming req see
system.mem_ctrls0.rdQLenPdf::10                     0                       # What read queue length does an incoming req see
system.mem_ctrls0.rdQLenPdf::11                     0                       # What read queue length does an incoming req see
system.mem_ctrls0.rdQLenPdf::12                     0                       # What read queue length does an incoming req see
system.mem_ctrls0.rdQLenPdf::13                     0                       # What read queue length does an incoming req see
system.mem_ctrls0.rdQLenPdf::14                     0                       # What read queue length does an incoming req see
system.mem_ctrls0.rdQLenPdf::15                     0                       # What read queue length does an incoming req see
system.mem_ctrls0.rdQLenPdf::16                     0                       # What read queue length does an incoming req see
system.mem_ctrls0.rdQLenPdf::17                     0                       # What read queue length does an incoming req see
system.mem_ctrls0.rdQLenPdf::18                     0                       # What read queue length does an incoming req see
system.mem_ctrls0.rdQLenPdf::19                     0                       # What read queue length does an incoming req see
system.mem_ctrls0.rdQLenPdf::20                     0                       # What read queue length does an incoming req see
system.mem_ctrls0.rdQLenPdf::21                     0                       # What read queue length does an incoming req see
system.mem_ctrls0.rdQLenPdf::22                     0                       # What read queue length does an incoming req see
system.mem_ctrls0.rdQLenPdf::23                     0                       # What read queue length does an incoming req see
system.mem_ctrls0.rdQLenPdf::24                     0                       # What read queue length does an incoming req see
system.mem_ctrls0.rdQLenPdf::25                     0                       # What read queue length does an incoming req see
system.mem_ctrls0.rdQLenPdf::26                     0                       # What read queue length does an incoming req see
system.mem_ctrls0.rdQLenPdf::27                     0                       # What read queue length does an incoming req see
system.mem_ctrls0.rdQLenPdf::28                     0                       # What read queue length does an incoming req see
system.mem_ctrls0.rdQLenPdf::29                     0                       # What read queue length does an incoming req see
system.mem_ctrls0.rdQLenPdf::30                     0                       # What read queue length does an incoming req see
system.mem_ctrls0.rdQLenPdf::31                     0                       # What read queue length does an incoming req see
system.mem_ctrls0.wrQLenPdf::0                      0                       # What write queue length does an incoming req see
system.mem_ctrls0.wrQLenPdf::1                      0                       # What write queue length does an incoming req see
system.mem_ctrls0.wrQLenPdf::2                      0                       # What write queue length does an incoming req see
system.mem_ctrls0.wrQLenPdf::3                      0                       # What write queue length does an incoming req see
system.mem_ctrls0.wrQLenPdf::4                      0                       # What write queue length does an incoming req see
system.mem_ctrls0.wrQLenPdf::5                      0                       # What write queue length does an incoming req see
system.mem_ctrls0.wrQLenPdf::6                      0                       # What write queue length does an incoming req see
system.mem_ctrls0.wrQLenPdf::7                      0                       # What write queue length does an incoming req see
system.mem_ctrls0.wrQLenPdf::8                      0                       # What write queue length does an incoming req see
system.mem_ctrls0.wrQLenPdf::9                      0                       # What write queue length does an incoming req see
system.mem_ctrls0.wrQLenPdf::10                     0                       # What write queue length does an incoming req see
system.mem_ctrls0.wrQLenPdf::11                     0                       # What write queue length does an incoming req see
system.mem_ctrls0.wrQLenPdf::12                     0                       # What write queue length does an incoming req see
system.mem_ctrls0.wrQLenPdf::13                     0                       # What write queue length does an incoming req see
system.mem_ctrls0.wrQLenPdf::14                     0                       # What write queue length does an incoming req see
system.mem_ctrls0.wrQLenPdf::15                   252                       # What write queue length does an incoming req see
system.mem_ctrls0.wrQLenPdf::16                   405                       # What write queue length does an incoming req see
system.mem_ctrls0.wrQLenPdf::17                  2076                       # What write queue length does an incoming req see
system.mem_ctrls0.wrQLenPdf::18                  2138                       # What write queue length does an incoming req see
system.mem_ctrls0.wrQLenPdf::19                  2208                       # What write queue length does an incoming req see
system.mem_ctrls0.wrQLenPdf::20                  2204                       # What write queue length does an incoming req see
system.mem_ctrls0.wrQLenPdf::21                  2195                       # What write queue length does an incoming req see
system.mem_ctrls0.wrQLenPdf::22                  2236                       # What write queue length does an incoming req see
system.mem_ctrls0.wrQLenPdf::23                  2217                       # What write queue length does an incoming req see
system.mem_ctrls0.wrQLenPdf::24                  2266                       # What write queue length does an incoming req see
system.mem_ctrls0.wrQLenPdf::25                  2362                       # What write queue length does an incoming req see
system.mem_ctrls0.wrQLenPdf::26                  2197                       # What write queue length does an incoming req see
system.mem_ctrls0.wrQLenPdf::27                  2173                       # What write queue length does an incoming req see
system.mem_ctrls0.wrQLenPdf::28                  2161                       # What write queue length does an incoming req see
system.mem_ctrls0.wrQLenPdf::29                  2095                       # What write queue length does an incoming req see
system.mem_ctrls0.wrQLenPdf::30                  2055                       # What write queue length does an incoming req see
system.mem_ctrls0.wrQLenPdf::31                  2025                       # What write queue length does an incoming req see
system.mem_ctrls0.wrQLenPdf::32                  2020                       # What write queue length does an incoming req see
system.mem_ctrls0.wrQLenPdf::33                    87                       # What write queue length does an incoming req see
system.mem_ctrls0.wrQLenPdf::34                    85                       # What write queue length does an incoming req see
system.mem_ctrls0.wrQLenPdf::35                    84                       # What write queue length does an incoming req see
system.mem_ctrls0.wrQLenPdf::36                    73                       # What write queue length does an incoming req see
system.mem_ctrls0.wrQLenPdf::37                    77                       # What write queue length does an incoming req see
system.mem_ctrls0.wrQLenPdf::38                    79                       # What write queue length does an incoming req see
system.mem_ctrls0.wrQLenPdf::39                    78                       # What write queue length does an incoming req see
system.mem_ctrls0.wrQLenPdf::40                    76                       # What write queue length does an incoming req see
system.mem_ctrls0.wrQLenPdf::41                    67                       # What write queue length does an incoming req see
system.mem_ctrls0.wrQLenPdf::42                    72                       # What write queue length does an incoming req see
system.mem_ctrls0.wrQLenPdf::43                    68                       # What write queue length does an incoming req see
system.mem_ctrls0.wrQLenPdf::44                    60                       # What write queue length does an incoming req see
system.mem_ctrls0.wrQLenPdf::45                    59                       # What write queue length does an incoming req see
system.mem_ctrls0.wrQLenPdf::46                    59                       # What write queue length does an incoming req see
system.mem_ctrls0.wrQLenPdf::47                    60                       # What write queue length does an incoming req see
system.mem_ctrls0.wrQLenPdf::48                    56                       # What write queue length does an incoming req see
system.mem_ctrls0.wrQLenPdf::49                    65                       # What write queue length does an incoming req see
system.mem_ctrls0.wrQLenPdf::50                    61                       # What write queue length does an incoming req see
system.mem_ctrls0.wrQLenPdf::51                    56                       # What write queue length does an incoming req see
system.mem_ctrls0.wrQLenPdf::52                    54                       # What write queue length does an incoming req see
system.mem_ctrls0.wrQLenPdf::53                    48                       # What write queue length does an incoming req see
system.mem_ctrls0.wrQLenPdf::54                    41                       # What write queue length does an incoming req see
system.mem_ctrls0.wrQLenPdf::55                    36                       # What write queue length does an incoming req see
system.mem_ctrls0.wrQLenPdf::56                    36                       # What write queue length does an incoming req see
system.mem_ctrls0.wrQLenPdf::57                    30                       # What write queue length does an incoming req see
system.mem_ctrls0.wrQLenPdf::58                    27                       # What write queue length does an incoming req see
system.mem_ctrls0.wrQLenPdf::59                    32                       # What write queue length does an incoming req see
system.mem_ctrls0.wrQLenPdf::60                    23                       # What write queue length does an incoming req see
system.mem_ctrls0.wrQLenPdf::61                    15                       # What write queue length does an incoming req see
system.mem_ctrls0.wrQLenPdf::62                    21                       # What write queue length does an incoming req see
system.mem_ctrls0.wrQLenPdf::63                    47                       # What write queue length does an incoming req see
system.mem_ctrls0.bytesPerActivate::samples        17679                       # Bytes accessed per row activation
system.mem_ctrls0.bytesPerActivate::mean   247.322586                       # Bytes accessed per row activation
system.mem_ctrls0.bytesPerActivate::gmean   177.901847                       # Bytes accessed per row activation
system.mem_ctrls0.bytesPerActivate::stdev   214.141910                       # Bytes accessed per row activation
system.mem_ctrls0.bytesPerActivate::0-127         5192     29.37%     29.37% # Bytes accessed per row activation
system.mem_ctrls0.bytesPerActivate::128-255         4936     27.92%     57.29% # Bytes accessed per row activation
system.mem_ctrls0.bytesPerActivate::256-383         3348     18.94%     76.23% # Bytes accessed per row activation
system.mem_ctrls0.bytesPerActivate::384-511         2397     13.56%     89.78% # Bytes accessed per row activation
system.mem_ctrls0.bytesPerActivate::512-639          853      4.82%     94.61% # Bytes accessed per row activation
system.mem_ctrls0.bytesPerActivate::640-767          186      1.05%     95.66% # Bytes accessed per row activation
system.mem_ctrls0.bytesPerActivate::768-895          117      0.66%     96.32% # Bytes accessed per row activation
system.mem_ctrls0.bytesPerActivate::896-1023          103      0.58%     96.91% # Bytes accessed per row activation
system.mem_ctrls0.bytesPerActivate::1024-1151          547      3.09%    100.00% # Bytes accessed per row activation
system.mem_ctrls0.bytesPerActivate::total        17679                       # Bytes accessed per row activation
system.mem_ctrls0.rdPerTurnAround::samples         1976                       # Reads before turning the bus around for writes
system.mem_ctrls0.rdPerTurnAround::mean     15.840081                       # Reads before turning the bus around for writes
system.mem_ctrls0.rdPerTurnAround::stdev     8.314315                       # Reads before turning the bus around for writes
system.mem_ctrls0.rdPerTurnAround::0-3            284     14.37%     14.37% # Reads before turning the bus around for writes
system.mem_ctrls0.rdPerTurnAround::4-7             24      1.21%     15.59% # Reads before turning the bus around for writes
system.mem_ctrls0.rdPerTurnAround::8-11            21      1.06%     16.65% # Reads before turning the bus around for writes
system.mem_ctrls0.rdPerTurnAround::12-15           27      1.37%     18.02% # Reads before turning the bus around for writes
system.mem_ctrls0.rdPerTurnAround::16-19         1270     64.27%     82.29% # Reads before turning the bus around for writes
system.mem_ctrls0.rdPerTurnAround::20-23          207     10.48%     92.76% # Reads before turning the bus around for writes
system.mem_ctrls0.rdPerTurnAround::24-27           65      3.29%     96.05% # Reads before turning the bus around for writes
system.mem_ctrls0.rdPerTurnAround::28-31           34      1.72%     97.77% # Reads before turning the bus around for writes
system.mem_ctrls0.rdPerTurnAround::32-35           18      0.91%     98.68% # Reads before turning the bus around for writes
system.mem_ctrls0.rdPerTurnAround::36-39           10      0.51%     99.19% # Reads before turning the bus around for writes
system.mem_ctrls0.rdPerTurnAround::40-43            3      0.15%     99.34% # Reads before turning the bus around for writes
system.mem_ctrls0.rdPerTurnAround::44-47            3      0.15%     99.49% # Reads before turning the bus around for writes
system.mem_ctrls0.rdPerTurnAround::48-51            1      0.05%     99.54% # Reads before turning the bus around for writes
system.mem_ctrls0.rdPerTurnAround::60-63            2      0.10%     99.65% # Reads before turning the bus around for writes
system.mem_ctrls0.rdPerTurnAround::68-71            2      0.10%     99.75% # Reads before turning the bus around for writes
system.mem_ctrls0.rdPerTurnAround::72-75            1      0.05%     99.80% # Reads before turning the bus around for writes
system.mem_ctrls0.rdPerTurnAround::80-83            3      0.15%     99.95% # Reads before turning the bus around for writes
system.mem_ctrls0.rdPerTurnAround::104-107            1      0.05%    100.00% # Reads before turning the bus around for writes
system.mem_ctrls0.rdPerTurnAround::total         1976                       # Reads before turning the bus around for writes
system.mem_ctrls0.wrPerTurnAround::samples         1976                       # Writes before turning the bus around for reads
system.mem_ctrls0.wrPerTurnAround::mean     18.733300                       # Writes before turning the bus around for reads
system.mem_ctrls0.wrPerTurnAround::gmean    17.775365                       # Writes before turning the bus around for reads
system.mem_ctrls0.wrPerTurnAround::stdev     8.335510                       # Writes before turning the bus around for reads
system.mem_ctrls0.wrPerTurnAround::16-17         1664     84.21%     84.21% # Writes before turning the bus around for reads
system.mem_ctrls0.wrPerTurnAround::18-19           37      1.87%     86.08% # Writes before turning the bus around for reads
system.mem_ctrls0.wrPerTurnAround::20-21           12      0.61%     86.69% # Writes before turning the bus around for reads
system.mem_ctrls0.wrPerTurnAround::22-23           10      0.51%     87.20% # Writes before turning the bus around for reads
system.mem_ctrls0.wrPerTurnAround::24-25           25      1.27%     88.46% # Writes before turning the bus around for reads
system.mem_ctrls0.wrPerTurnAround::26-27           21      1.06%     89.52% # Writes before turning the bus around for reads
system.mem_ctrls0.wrPerTurnAround::28-29           47      2.38%     91.90% # Writes before turning the bus around for reads
system.mem_ctrls0.wrPerTurnAround::30-31           30      1.52%     93.42% # Writes before turning the bus around for reads
system.mem_ctrls0.wrPerTurnAround::32-33           22      1.11%     94.53% # Writes before turning the bus around for reads
system.mem_ctrls0.wrPerTurnAround::34-35           13      0.66%     95.19% # Writes before turning the bus around for reads
system.mem_ctrls0.wrPerTurnAround::36-37           10      0.51%     95.70% # Writes before turning the bus around for reads
system.mem_ctrls0.wrPerTurnAround::38-39            9      0.46%     96.15% # Writes before turning the bus around for reads
system.mem_ctrls0.wrPerTurnAround::40-41           12      0.61%     96.76% # Writes before turning the bus around for reads
system.mem_ctrls0.wrPerTurnAround::42-43            5      0.25%     97.01% # Writes before turning the bus around for reads
system.mem_ctrls0.wrPerTurnAround::44-45            7      0.35%     97.37% # Writes before turning the bus around for reads
system.mem_ctrls0.wrPerTurnAround::46-47            8      0.40%     97.77% # Writes before turning the bus around for reads
system.mem_ctrls0.wrPerTurnAround::48-49           17      0.86%     98.63% # Writes before turning the bus around for reads
system.mem_ctrls0.wrPerTurnAround::50-51            3      0.15%     98.79% # Writes before turning the bus around for reads
system.mem_ctrls0.wrPerTurnAround::52-53            1      0.05%     98.84% # Writes before turning the bus around for reads
system.mem_ctrls0.wrPerTurnAround::54-55            1      0.05%     98.89% # Writes before turning the bus around for reads
system.mem_ctrls0.wrPerTurnAround::56-57            9      0.46%     99.34% # Writes before turning the bus around for reads
system.mem_ctrls0.wrPerTurnAround::58-59            1      0.05%     99.39% # Writes before turning the bus around for reads
system.mem_ctrls0.wrPerTurnAround::60-61            1      0.05%     99.44% # Writes before turning the bus around for reads
system.mem_ctrls0.wrPerTurnAround::62-63            1      0.05%     99.49% # Writes before turning the bus around for reads
system.mem_ctrls0.wrPerTurnAround::66-67            1      0.05%     99.54% # Writes before turning the bus around for reads
system.mem_ctrls0.wrPerTurnAround::68-69            2      0.10%     99.65% # Writes before turning the bus around for reads
system.mem_ctrls0.wrPerTurnAround::70-71            1      0.05%     99.70% # Writes before turning the bus around for reads
system.mem_ctrls0.wrPerTurnAround::72-73            1      0.05%     99.75% # Writes before turning the bus around for reads
system.mem_ctrls0.wrPerTurnAround::78-79            1      0.05%     99.80% # Writes before turning the bus around for reads
system.mem_ctrls0.wrPerTurnAround::80-81            1      0.05%     99.85% # Writes before turning the bus around for reads
system.mem_ctrls0.wrPerTurnAround::98-99            1      0.05%     99.90% # Writes before turning the bus around for reads
system.mem_ctrls0.wrPerTurnAround::102-103            1      0.05%     99.95% # Writes before turning the bus around for reads
system.mem_ctrls0.wrPerTurnAround::114-115            1      0.05%    100.00% # Writes before turning the bus around for reads
system.mem_ctrls0.wrPerTurnAround::total         1976                       # Writes before turning the bus around for reads
system.mem_ctrls0.totQLat                  1731885500                       # Total ticks spent queuing
system.mem_ctrls0.totMemAccLat             2318798000                       # Total ticks spent from burst creation until serviced by the DRAM
system.mem_ctrls0.totBusLat                 156510000                       # Total ticks spent in databus transfers
system.mem_ctrls0.avgQLat                    55328.27                       # Average queueing delay per DRAM burst
system.mem_ctrls0.avgBusLat                   5000.00                       # Average bus latency per DRAM burst
system.mem_ctrls0.avgMemAccLat               74078.27                       # Average memory access latency per DRAM burst
system.mem_ctrls0.avgRdBW                        5.91                       # Average DRAM read bandwidth in MiByte/s
system.mem_ctrls0.avgWrBW                        6.99                       # Average achieved write bandwidth in MiByte/s
system.mem_ctrls0.avgRdBWSys                     5.98                       # Average system read bandwidth in MiByte/s
system.mem_ctrls0.avgWrBWSys                     7.01                       # Average system write bandwidth in MiByte/s
system.mem_ctrls0.peakBW                     12800.00                       # Theoretical peak bandwidth in MiByte/s
system.mem_ctrls0.busUtil                        0.10                       # Data bus utilization in percentage
system.mem_ctrls0.busUtilRead                    0.05                       # Data bus utilization in percentage for reads
system.mem_ctrls0.busUtilWrite                   0.05                       # Data bus utilization in percentage for writes
system.mem_ctrls0.avgRdQLen                      1.00                       # Average read queue length when enqueuing
system.mem_ctrls0.avgWrQLen                     25.45                       # Average write queue length when enqueuing
system.mem_ctrls0.readRowHits                   22527                       # Number of row buffer hits during reads
system.mem_ctrls0.writeRowHits                  28113                       # Number of row buffer hits during writes
system.mem_ctrls0.readRowHitRate                71.97                       # Row buffer hit rate for reads
system.mem_ctrls0.writeRowHitRate               75.95                       # Row buffer hit rate for writes
system.mem_ctrls0.avgGap                   4919893.20                       # Average gap between requests
system.mem_ctrls0.pageHitRate                   74.12                       # Row buffer hit rate, read and write combined
system.mem_ctrls0_0.actEnergy               103908420                       # Energy for activate commands per rank (pJ)
system.mem_ctrls0_0.preEnergy                55228635                       # Energy for precharge commands per rank (pJ)
system.mem_ctrls0_0.readEnergy              232299900                       # Energy for read commands per rank (pJ)
system.mem_ctrls0_0.writeEnergy             116719200                       # Energy for write commands per rank (pJ)
system.mem_ctrls0_0.refreshEnergy        8874786960.000002                       # Energy for refresh commands per rank (pJ)
system.mem_ctrls0_0.actBackEnergy          2923391490                       # Energy for active background per rank (pJ)
system.mem_ctrls0_0.preBackEnergy           512963040                       # Energy for precharge background per rank (pJ)
system.mem_ctrls0_0.actPowerDownEnergy    22190472210                       # Energy for active power-down per rank (pJ)
system.mem_ctrls0_0.prePowerDownEnergy    12386830080                       # Energy for precharge power-down per rank (pJ)
system.mem_ctrls0_0.selfRefreshEnergy    1316662108530                       # Energy for self refresh per rank (pJ)
system.mem_ctrls0_0.totalEnergy          1364061706245                       # Total energy per rank (pJ)
system.mem_ctrls0_0.averagePower           245.016807                       # Core power per rank (mW)
system.mem_ctrls0_0.totalIdleTime        334255998000                       # Total Idle time Per DRAM Rank
system.mem_ctrls0_0.memoryStateTime::IDLE    481849750                       # Time in different power states
system.mem_ctrls0_0.memoryStateTime::REF   1769778000                       # Time in different power states
system.mem_ctrls0_0.memoryStateTime::SREF 298122459000                       # Time in different power states
system.mem_ctrls0_0.memoryStateTime::PRE_PDN  15183664750                       # Time in different power states
system.mem_ctrls0_0.memoryStateTime::ACT   1906344500                       # Time in different power states
system.mem_ctrls0_0.memoryStateTime::ACT_PDN  22264428500                       # Time in different power states
system.mem_ctrls0_1.actEnergy                97346760                       # Energy for activate commands per rank (pJ)
system.mem_ctrls0_1.preEnergy                51741030                       # Energy for precharge commands per rank (pJ)
system.mem_ctrls0_1.readEnergy              232050000                       # Energy for read commands per rank (pJ)
system.mem_ctrls0_1.writeEnergy             118222560                       # Energy for write commands per rank (pJ)
system.mem_ctrls0_1.refreshEnergy        8191921920.000002                       # Energy for refresh commands per rank (pJ)
system.mem_ctrls0_1.actBackEnergy          2782994220                       # Energy for active background per rank (pJ)
system.mem_ctrls0_1.preBackEnergy           444566880                       # Energy for precharge background per rank (pJ)
system.mem_ctrls0_1.actPowerDownEnergy    21384480240                       # Energy for active power-down per rank (pJ)
system.mem_ctrls0_1.prePowerDownEnergy    11075335680                       # Energy for precharge power-down per rank (pJ)
system.mem_ctrls0_1.selfRefreshEnergy    1317795493560                       # Energy for self refresh per rank (pJ)
system.mem_ctrls0_1.totalEnergy          1362176338500                       # Total energy per rank (pJ)
system.mem_ctrls0_1.averagePower           244.678152                       # Core power per rank (mW)
system.mem_ctrls0_1.totalIdleTime        336856033750                       # Total Idle time Per DRAM Rank
system.mem_ctrls0_1.memoryStateTime::IDLE    409004750                       # Time in different power states
system.mem_ctrls0_1.memoryStateTime::REF   1712028000                       # Time in different power states
system.mem_ctrls0_1.memoryStateTime::SREF 301278365750                       # Time in different power states
system.mem_ctrls0_1.memoryStateTime::PRE_PDN  14504699500                       # Time in different power states
system.mem_ctrls0_1.memoryStateTime::ACT   1874381500                       # Time in different power states
system.mem_ctrls0_1.memoryStateTime::ACT_PDN  22408547750                       # Time in different power states
system.mem_ctrls1.pwrStateResidencyTicks::UNDEFINED 5567216890500                       # Cumulative time (in ticks) in various power states
system.mem_ctrls1.bytes_read::ruby.dir_cntrl1      2005376                       # Number of bytes read from this memory
system.mem_ctrls1.bytes_read::total           2005376                       # Number of bytes read from this memory
system.mem_ctrls1.bytes_written::ruby.dir_cntrl1      2377152                       # Number of bytes written to this memory
system.mem_ctrls1.bytes_written::total        2377152                       # Number of bytes written to this memory
system.mem_ctrls1.num_reads::ruby.dir_cntrl1        31334                       # Number of read requests responded to by this memory
system.mem_ctrls1.num_reads::total              31334                       # Number of read requests responded to by this memory
system.mem_ctrls1.num_writes::ruby.dir_cntrl1        37143                       # Number of write requests responded to by this memory
system.mem_ctrls1.num_writes::total             37143                       # Number of write requests responded to by this memory
system.mem_ctrls1.bw_read::ruby.dir_cntrl1      5918706                       # Total read bandwidth from this memory (bytes/s)
system.mem_ctrls1.bw_read::total              5918706                       # Total read bandwidth from this memory (bytes/s)
system.mem_ctrls1.bw_write::ruby.dir_cntrl1      7015973                       # Write bandwidth from this memory (bytes/s)
system.mem_ctrls1.bw_write::total             7015973                       # Write bandwidth from this memory (bytes/s)
system.mem_ctrls1.bw_total::ruby.dir_cntrl1     12934679                       # Total bandwidth to/from this memory (bytes/s)
system.mem_ctrls1.bw_total::total            12934679                       # Total bandwidth to/from this memory (bytes/s)
system.mem_ctrls1.readReqs                      31334                       # Number of read requests accepted
system.mem_ctrls1.writeReqs                     37143                       # Number of write requests accepted
system.mem_ctrls1.readBursts                    31334                       # Number of DRAM read bursts, including those serviced by the write queue
system.mem_ctrls1.writeBursts                   37143                       # Number of DRAM write bursts, including those merged in the write queue
system.mem_ctrls1.bytesReadDRAM               1990528                       # Total number of bytes read from DRAM
system.mem_ctrls1.bytesReadWrQ                  14848                       # Total number of bytes read from write queue
system.mem_ctrls1.bytesWritten                2377856                       # Total number of bytes written to DRAM
system.mem_ctrls1.bytesReadSys                2005376                       # Total read bytes from the system interface side
system.mem_ctrls1.bytesWrittenSys             2377152                       # Total written bytes from the system interface side
system.mem_ctrls1.servicedByWrQ                   232                       # Number of DRAM read bursts serviced by the write queue
system.mem_ctrls1.mergedWrBursts                    0                       # Number of DRAM write bursts merged with an existing one
system.mem_ctrls1.neitherReadNorWriteReqs            0                       # Number of requests that are neither read nor write
system.mem_ctrls1.perBankRdBursts::0             2088                       # Per bank write bursts
system.mem_ctrls1.perBankRdBursts::1             2054                       # Per bank write bursts
system.mem_ctrls1.perBankRdBursts::2             2016                       # Per bank write bursts
system.mem_ctrls1.perBankRdBursts::3             1963                       # Per bank write bursts
system.mem_ctrls1.perBankRdBursts::4             1838                       # Per bank write bursts
system.mem_ctrls1.perBankRdBursts::5             1941                       # Per bank write bursts
system.mem_ctrls1.perBankRdBursts::6             1889                       # Per bank write bursts
system.mem_ctrls1.perBankRdBursts::7             1898                       # Per bank write bursts
system.mem_ctrls1.perBankRdBursts::8             1855                       # Per bank write bursts
system.mem_ctrls1.perBankRdBursts::9             1942                       # Per bank write bursts
system.mem_ctrls1.perBankRdBursts::10            1940                       # Per bank write bursts
system.mem_ctrls1.perBankRdBursts::11            1864                       # Per bank write bursts
system.mem_ctrls1.perBankRdBursts::12            1764                       # Per bank write bursts
system.mem_ctrls1.perBankRdBursts::13            1838                       # Per bank write bursts
system.mem_ctrls1.perBankRdBursts::14            2091                       # Per bank write bursts
system.mem_ctrls1.perBankRdBursts::15            2121                       # Per bank write bursts
system.mem_ctrls1.perBankWrBursts::0             2411                       # Per bank write bursts
system.mem_ctrls1.perBankWrBursts::1             2289                       # Per bank write bursts
system.mem_ctrls1.perBankWrBursts::2             2328                       # Per bank write bursts
system.mem_ctrls1.perBankWrBursts::3             2320                       # Per bank write bursts
system.mem_ctrls1.perBankWrBursts::4             2220                       # Per bank write bursts
system.mem_ctrls1.perBankWrBursts::5             2174                       # Per bank write bursts
system.mem_ctrls1.perBankWrBursts::6             2201                       # Per bank write bursts
system.mem_ctrls1.perBankWrBursts::7             2249                       # Per bank write bursts
system.mem_ctrls1.perBankWrBursts::8             2329                       # Per bank write bursts
system.mem_ctrls1.perBankWrBursts::9             2414                       # Per bank write bursts
system.mem_ctrls1.perBankWrBursts::10            2603                       # Per bank write bursts
system.mem_ctrls1.perBankWrBursts::11            2468                       # Per bank write bursts
system.mem_ctrls1.perBankWrBursts::12            2218                       # Per bank write bursts
system.mem_ctrls1.perBankWrBursts::13            2416                       # Per bank write bursts
system.mem_ctrls1.perBankWrBursts::14            2332                       # Per bank write bursts
system.mem_ctrls1.perBankWrBursts::15            2182                       # Per bank write bursts
system.mem_ctrls1.numRdRetry                        0                       # Number of times read queue was full causing retry
system.mem_ctrls1.numWrRetry                      114                       # Number of times write queue was full causing retry
system.mem_ctrls1.totGap                 340868118500                       # Total gap between requests
system.mem_ctrls1.readPktSize::0                    0                       # Read request sizes (log2)
system.mem_ctrls1.readPktSize::1                    0                       # Read request sizes (log2)
system.mem_ctrls1.readPktSize::2                    0                       # Read request sizes (log2)
system.mem_ctrls1.readPktSize::3                    0                       # Read request sizes (log2)
system.mem_ctrls1.readPktSize::4                    0                       # Read request sizes (log2)
system.mem_ctrls1.readPktSize::5                    0                       # Read request sizes (log2)
system.mem_ctrls1.readPktSize::6                31334                       # Read request sizes (log2)
system.mem_ctrls1.writePktSize::0                   0                       # Write request sizes (log2)
system.mem_ctrls1.writePktSize::1                   0                       # Write request sizes (log2)
system.mem_ctrls1.writePktSize::2                   0                       # Write request sizes (log2)
system.mem_ctrls1.writePktSize::3                   0                       # Write request sizes (log2)
system.mem_ctrls1.writePktSize::4                   0                       # Write request sizes (log2)
system.mem_ctrls1.writePktSize::5                   0                       # Write request sizes (log2)
system.mem_ctrls1.writePktSize::6               37143                       # Write request sizes (log2)
system.mem_ctrls1.rdQLenPdf::0                  31102                       # What read queue length does an incoming req see
system.mem_ctrls1.rdQLenPdf::1                      0                       # What read queue length does an incoming req see
system.mem_ctrls1.rdQLenPdf::2                      0                       # What read queue length does an incoming req see
system.mem_ctrls1.rdQLenPdf::3                      0                       # What read queue length does an incoming req see
system.mem_ctrls1.rdQLenPdf::4                      0                       # What read queue length does an incoming req see
system.mem_ctrls1.rdQLenPdf::5                      0                       # What read queue length does an incoming req see
system.mem_ctrls1.rdQLenPdf::6                      0                       # What read queue length does an incoming req see
system.mem_ctrls1.rdQLenPdf::7                      0                       # What read queue length does an incoming req see
system.mem_ctrls1.rdQLenPdf::8                      0                       # What read queue length does an incoming req see
system.mem_ctrls1.rdQLenPdf::9                      0                       # What read queue length does an incoming req see
system.mem_ctrls1.rdQLenPdf::10                     0                       # What read queue length does an incoming req see
system.mem_ctrls1.rdQLenPdf::11                     0                       # What read queue length does an incoming req see
system.mem_ctrls1.rdQLenPdf::12                     0                       # What read queue length does an incoming req see
system.mem_ctrls1.rdQLenPdf::13                     0                       # What read queue length does an incoming req see
system.mem_ctrls1.rdQLenPdf::14                     0                       # What read queue length does an incoming req see
system.mem_ctrls1.rdQLenPdf::15                     0                       # What read queue length does an incoming req see
system.mem_ctrls1.rdQLenPdf::16                     0                       # What read queue length does an incoming req see
system.mem_ctrls1.rdQLenPdf::17                     0                       # What read queue length does an incoming req see
system.mem_ctrls1.rdQLenPdf::18                     0                       # What read queue length does an incoming req see
system.mem_ctrls1.rdQLenPdf::19                     0                       # What read queue length does an incoming req see
system.mem_ctrls1.rdQLenPdf::20                     0                       # What read queue length does an incoming req see
system.mem_ctrls1.rdQLenPdf::21                     0                       # What read queue length does an incoming req see
system.mem_ctrls1.rdQLenPdf::22                     0                       # What read queue length does an incoming req see
system.mem_ctrls1.rdQLenPdf::23                     0                       # What read queue length does an incoming req see
system.mem_ctrls1.rdQLenPdf::24                     0                       # What read queue length does an incoming req see
system.mem_ctrls1.rdQLenPdf::25                     0                       # What read queue length does an incoming req see
system.mem_ctrls1.rdQLenPdf::26                     0                       # What read queue length does an incoming req see
system.mem_ctrls1.rdQLenPdf::27                     0                       # What read queue length does an incoming req see
system.mem_ctrls1.rdQLenPdf::28                     0                       # What read queue length does an incoming req see
system.mem_ctrls1.rdQLenPdf::29                     0                       # What read queue length does an incoming req see
system.mem_ctrls1.rdQLenPdf::30                     0                       # What read queue length does an incoming req see
system.mem_ctrls1.rdQLenPdf::31                     0                       # What read queue length does an incoming req see
system.mem_ctrls1.wrQLenPdf::0                      0                       # What write queue length does an incoming req see
system.mem_ctrls1.wrQLenPdf::1                      0                       # What write queue length does an incoming req see
system.mem_ctrls1.wrQLenPdf::2                      0                       # What write queue length does an incoming req see
system.mem_ctrls1.wrQLenPdf::3                      0                       # What write queue length does an incoming req see
system.mem_ctrls1.wrQLenPdf::4                      0                       # What write queue length does an incoming req see
system.mem_ctrls1.wrQLenPdf::5                      0                       # What write queue length does an incoming req see
system.mem_ctrls1.wrQLenPdf::6                      0                       # What write queue length does an incoming req see
system.mem_ctrls1.wrQLenPdf::7                      0                       # What write queue length does an incoming req see
system.mem_ctrls1.wrQLenPdf::8                      0                       # What write queue length does an incoming req see
system.mem_ctrls1.wrQLenPdf::9                      0                       # What write queue length does an incoming req see
system.mem_ctrls1.wrQLenPdf::10                     0                       # What write queue length does an incoming req see
system.mem_ctrls1.wrQLenPdf::11                     0                       # What write queue length does an incoming req see
system.mem_ctrls1.wrQLenPdf::12                     0                       # What write queue length does an incoming req see
system.mem_ctrls1.wrQLenPdf::13                     0                       # What write queue length does an incoming req see
system.mem_ctrls1.wrQLenPdf::14                     0                       # What write queue length does an incoming req see
system.mem_ctrls1.wrQLenPdf::15                   260                       # What write queue length does an incoming req see
system.mem_ctrls1.wrQLenPdf::16                   394                       # What write queue length does an incoming req see
system.mem_ctrls1.wrQLenPdf::17                  2038                       # What write queue length does an incoming req see
system.mem_ctrls1.wrQLenPdf::18                  2102                       # What write queue length does an incoming req see
system.mem_ctrls1.wrQLenPdf::19                  2138                       # What write queue length does an incoming req see
system.mem_ctrls1.wrQLenPdf::20                  2128                       # What write queue length does an incoming req see
system.mem_ctrls1.wrQLenPdf::21                  2080                       # What write queue length does an incoming req see
system.mem_ctrls1.wrQLenPdf::22                  2167                       # What write queue length does an incoming req see
system.mem_ctrls1.wrQLenPdf::23                  2127                       # What write queue length does an incoming req see
system.mem_ctrls1.wrQLenPdf::24                  2197                       # What write queue length does an incoming req see
system.mem_ctrls1.wrQLenPdf::25                  2281                       # What write queue length does an incoming req see
system.mem_ctrls1.wrQLenPdf::26                  2074                       # What write queue length does an incoming req see
system.mem_ctrls1.wrQLenPdf::27                  2027                       # What write queue length does an incoming req see
system.mem_ctrls1.wrQLenPdf::28                  2014                       # What write queue length does an incoming req see
system.mem_ctrls1.wrQLenPdf::29                  2010                       # What write queue length does an incoming req see
system.mem_ctrls1.wrQLenPdf::30                  1976                       # What write queue length does an incoming req see
system.mem_ctrls1.wrQLenPdf::31                  2001                       # What write queue length does an incoming req see
system.mem_ctrls1.wrQLenPdf::32                  1957                       # What write queue length does an incoming req see
system.mem_ctrls1.wrQLenPdf::33                   114                       # What write queue length does an incoming req see
system.mem_ctrls1.wrQLenPdf::34                   105                       # What write queue length does an incoming req see
system.mem_ctrls1.wrQLenPdf::35                   101                       # What write queue length does an incoming req see
system.mem_ctrls1.wrQLenPdf::36                    98                       # What write queue length does an incoming req see
system.mem_ctrls1.wrQLenPdf::37                   105                       # What write queue length does an incoming req see
system.mem_ctrls1.wrQLenPdf::38                   113                       # What write queue length does an incoming req see
system.mem_ctrls1.wrQLenPdf::39                   106                       # What write queue length does an incoming req see
system.mem_ctrls1.wrQLenPdf::40                   106                       # What write queue length does an incoming req see
system.mem_ctrls1.wrQLenPdf::41                    97                       # What write queue length does an incoming req see
system.mem_ctrls1.wrQLenPdf::42                    96                       # What write queue length does an incoming req see
system.mem_ctrls1.wrQLenPdf::43                    99                       # What write queue length does an incoming req see
system.mem_ctrls1.wrQLenPdf::44                   105                       # What write queue length does an incoming req see
system.mem_ctrls1.wrQLenPdf::45                    96                       # What write queue length does an incoming req see
system.mem_ctrls1.wrQLenPdf::46                   102                       # What write queue length does an incoming req see
system.mem_ctrls1.wrQLenPdf::47                   106                       # What write queue length does an incoming req see
system.mem_ctrls1.wrQLenPdf::48                   100                       # What write queue length does an incoming req see
system.mem_ctrls1.wrQLenPdf::49                   109                       # What write queue length does an incoming req see
system.mem_ctrls1.wrQLenPdf::50                   106                       # What write queue length does an incoming req see
system.mem_ctrls1.wrQLenPdf::51                    96                       # What write queue length does an incoming req see
system.mem_ctrls1.wrQLenPdf::52                    94                       # What write queue length does an incoming req see
system.mem_ctrls1.wrQLenPdf::53                    99                       # What write queue length does an incoming req see
system.mem_ctrls1.wrQLenPdf::54                   100                       # What write queue length does an incoming req see
system.mem_ctrls1.wrQLenPdf::55                   113                       # What write queue length does an incoming req see
system.mem_ctrls1.wrQLenPdf::56                   117                       # What write queue length does an incoming req see
system.mem_ctrls1.wrQLenPdf::57                   104                       # What write queue length does an incoming req see
system.mem_ctrls1.wrQLenPdf::58                   106                       # What write queue length does an incoming req see
system.mem_ctrls1.wrQLenPdf::59                    88                       # What write queue length does an incoming req see
system.mem_ctrls1.wrQLenPdf::60                    74                       # What write queue length does an incoming req see
system.mem_ctrls1.wrQLenPdf::61                    60                       # What write queue length does an incoming req see
system.mem_ctrls1.wrQLenPdf::62                    72                       # What write queue length does an incoming req see
system.mem_ctrls1.wrQLenPdf::63                   185                       # What write queue length does an incoming req see
system.mem_ctrls1.bytesPerActivate::samples        17173                       # Bytes accessed per row activation
system.mem_ctrls1.bytesPerActivate::mean   254.375124                       # Bytes accessed per row activation
system.mem_ctrls1.bytesPerActivate::gmean   182.796797                       # Bytes accessed per row activation
system.mem_ctrls1.bytesPerActivate::stdev   218.911791                       # Bytes accessed per row activation
system.mem_ctrls1.bytesPerActivate::0-127         4852     28.25%     28.25% # Bytes accessed per row activation
system.mem_ctrls1.bytesPerActivate::128-255         4717     27.47%     55.72% # Bytes accessed per row activation
system.mem_ctrls1.bytesPerActivate::256-383         3291     19.16%     74.88% # Bytes accessed per row activation
system.mem_ctrls1.bytesPerActivate::384-511         2473     14.40%     89.29% # Bytes accessed per row activation
system.mem_ctrls1.bytesPerActivate::512-639          822      4.79%     94.07% # Bytes accessed per row activation
system.mem_ctrls1.bytesPerActivate::640-767          211      1.23%     95.30% # Bytes accessed per row activation
system.mem_ctrls1.bytesPerActivate::768-895          120      0.70%     96.00% # Bytes accessed per row activation
system.mem_ctrls1.bytesPerActivate::896-1023          109      0.63%     96.63% # Bytes accessed per row activation
system.mem_ctrls1.bytesPerActivate::1024-1151          578      3.37%    100.00% # Bytes accessed per row activation
system.mem_ctrls1.bytesPerActivate::total        17173                       # Bytes accessed per row activation
system.mem_ctrls1.rdPerTurnAround::samples         1942                       # Reads before turning the bus around for writes
system.mem_ctrls1.rdPerTurnAround::mean     16.024717                       # Reads before turning the bus around for writes
system.mem_ctrls1.rdPerTurnAround::stdev     7.990812                       # Reads before turning the bus around for writes
system.mem_ctrls1.rdPerTurnAround::0-3            241     12.41%     12.41% # Reads before turning the bus around for writes
system.mem_ctrls1.rdPerTurnAround::4-7             21      1.08%     13.49% # Reads before turning the bus around for writes
system.mem_ctrls1.rdPerTurnAround::8-11            20      1.03%     14.52% # Reads before turning the bus around for writes
system.mem_ctrls1.rdPerTurnAround::12-15           25      1.29%     15.81% # Reads before turning the bus around for writes
system.mem_ctrls1.rdPerTurnAround::16-19         1296     66.74%     82.54% # Reads before turning the bus around for writes
system.mem_ctrls1.rdPerTurnAround::20-23          194      9.99%     92.53% # Reads before turning the bus around for writes
system.mem_ctrls1.rdPerTurnAround::24-27           75      3.86%     96.40% # Reads before turning the bus around for writes
system.mem_ctrls1.rdPerTurnAround::28-31           37      1.91%     98.30% # Reads before turning the bus around for writes
system.mem_ctrls1.rdPerTurnAround::32-35           10      0.51%     98.82% # Reads before turning the bus around for writes
system.mem_ctrls1.rdPerTurnAround::36-39            9      0.46%     99.28% # Reads before turning the bus around for writes
system.mem_ctrls1.rdPerTurnAround::40-43            3      0.15%     99.43% # Reads before turning the bus around for writes
system.mem_ctrls1.rdPerTurnAround::44-47            3      0.15%     99.59% # Reads before turning the bus around for writes
system.mem_ctrls1.rdPerTurnAround::48-51            1      0.05%     99.64% # Reads before turning the bus around for writes
system.mem_ctrls1.rdPerTurnAround::60-63            1      0.05%     99.69% # Reads before turning the bus around for writes
system.mem_ctrls1.rdPerTurnAround::64-67            1      0.05%     99.74% # Reads before turning the bus around for writes
system.mem_ctrls1.rdPerTurnAround::72-75            2      0.10%     99.85% # Reads before turning the bus around for writes
system.mem_ctrls1.rdPerTurnAround::80-83            1      0.05%     99.90% # Reads before turning the bus around for writes
system.mem_ctrls1.rdPerTurnAround::88-91            1      0.05%     99.95% # Reads before turning the bus around for writes
system.mem_ctrls1.rdPerTurnAround::112-115            1      0.05%    100.00% # Reads before turning the bus around for writes
system.mem_ctrls1.rdPerTurnAround::total         1942                       # Reads before turning the bus around for writes
system.mem_ctrls1.wrPerTurnAround::samples         1942                       # Writes before turning the bus around for reads
system.mem_ctrls1.wrPerTurnAround::mean     19.131823                       # Writes before turning the bus around for reads
system.mem_ctrls1.wrPerTurnAround::gmean    17.819703                       # Writes before turning the bus around for reads
system.mem_ctrls1.wrPerTurnAround::stdev    10.929314                       # Writes before turning the bus around for reads
system.mem_ctrls1.wrPerTurnAround::16-19         1696     87.33%     87.33% # Writes before turning the bus around for reads
system.mem_ctrls1.wrPerTurnAround::20-23           14      0.72%     88.05% # Writes before turning the bus around for reads
system.mem_ctrls1.wrPerTurnAround::24-27           32      1.65%     89.70% # Writes before turning the bus around for reads
system.mem_ctrls1.wrPerTurnAround::28-31           58      2.99%     92.69% # Writes before turning the bus around for reads
system.mem_ctrls1.wrPerTurnAround::32-35           31      1.60%     94.28% # Writes before turning the bus around for reads
system.mem_ctrls1.wrPerTurnAround::36-39           23      1.18%     95.47% # Writes before turning the bus around for reads
system.mem_ctrls1.wrPerTurnAround::40-43           15      0.77%     96.24% # Writes before turning the bus around for reads
system.mem_ctrls1.wrPerTurnAround::44-47            9      0.46%     96.70% # Writes before turning the bus around for reads
system.mem_ctrls1.wrPerTurnAround::48-51           20      1.03%     97.73% # Writes before turning the bus around for reads
system.mem_ctrls1.wrPerTurnAround::52-55            8      0.41%     98.15% # Writes before turning the bus around for reads
system.mem_ctrls1.wrPerTurnAround::56-59            7      0.36%     98.51% # Writes before turning the bus around for reads
system.mem_ctrls1.wrPerTurnAround::60-63            3      0.15%     98.66% # Writes before turning the bus around for reads
system.mem_ctrls1.wrPerTurnAround::64-67            2      0.10%     98.76% # Writes before turning the bus around for reads
system.mem_ctrls1.wrPerTurnAround::68-71            4      0.21%     98.97% # Writes before turning the bus around for reads
system.mem_ctrls1.wrPerTurnAround::72-75            4      0.21%     99.18% # Writes before turning the bus around for reads
system.mem_ctrls1.wrPerTurnAround::76-79            2      0.10%     99.28% # Writes before turning the bus around for reads
system.mem_ctrls1.wrPerTurnAround::84-87            1      0.05%     99.33% # Writes before turning the bus around for reads
system.mem_ctrls1.wrPerTurnAround::88-91            2      0.10%     99.43% # Writes before turning the bus around for reads
system.mem_ctrls1.wrPerTurnAround::92-95            2      0.10%     99.54% # Writes before turning the bus around for reads
system.mem_ctrls1.wrPerTurnAround::96-99            1      0.05%     99.59% # Writes before turning the bus around for reads
system.mem_ctrls1.wrPerTurnAround::100-103            1      0.05%     99.64% # Writes before turning the bus around for reads
system.mem_ctrls1.wrPerTurnAround::104-107            1      0.05%     99.69% # Writes before turning the bus around for reads
system.mem_ctrls1.wrPerTurnAround::108-111            1      0.05%     99.74% # Writes before turning the bus around for reads
system.mem_ctrls1.wrPerTurnAround::116-119            2      0.10%     99.85% # Writes before turning the bus around for reads
system.mem_ctrls1.wrPerTurnAround::128-131            3      0.15%    100.00% # Writes before turning the bus around for reads
system.mem_ctrls1.wrPerTurnAround::total         1942                       # Writes before turning the bus around for reads
system.mem_ctrls1.totQLat                  1653337994                       # Total ticks spent queuing
system.mem_ctrls1.totMemAccLat             2236500494                       # Total ticks spent from burst creation until serviced by the DRAM
system.mem_ctrls1.totBusLat                 155510000                       # Total ticks spent in databus transfers
system.mem_ctrls1.avgQLat                    53158.57                       # Average queueing delay per DRAM burst
system.mem_ctrls1.avgBusLat                   5000.00                       # Average bus latency per DRAM burst
system.mem_ctrls1.avgMemAccLat               71908.57                       # Average memory access latency per DRAM burst
system.mem_ctrls1.avgRdBW                        5.87                       # Average DRAM read bandwidth in MiByte/s
system.mem_ctrls1.avgWrBW                        7.02                       # Average achieved write bandwidth in MiByte/s
system.mem_ctrls1.avgRdBWSys                     5.92                       # Average system read bandwidth in MiByte/s
system.mem_ctrls1.avgWrBWSys                     7.02                       # Average system write bandwidth in MiByte/s
system.mem_ctrls1.peakBW                     12800.00                       # Theoretical peak bandwidth in MiByte/s
system.mem_ctrls1.busUtil                        0.10                       # Data bus utilization in percentage
system.mem_ctrls1.busUtilRead                    0.05                       # Data bus utilization in percentage for reads
system.mem_ctrls1.busUtilWrite                   0.05                       # Data bus utilization in percentage for writes
system.mem_ctrls1.avgRdQLen                      1.00                       # Average read queue length when enqueuing
system.mem_ctrls1.avgWrQLen                     25.85                       # Average write queue length when enqueuing
system.mem_ctrls1.readRowHits                   22590                       # Number of row buffer hits during reads
system.mem_ctrls1.writeRowHits                  28493                       # Number of row buffer hits during writes
system.mem_ctrls1.readRowHitRate                72.63                       # Row buffer hit rate for reads
system.mem_ctrls1.writeRowHitRate               76.71                       # Row buffer hit rate for writes
system.mem_ctrls1.avgGap                   4977848.31                       # Average gap between requests
system.mem_ctrls1.pageHitRate                   74.85                       # Row buffer hit rate, read and write combined
system.mem_ctrls1_0.actEnergy               101716440                       # Energy for activate commands per rank (pJ)
system.mem_ctrls1_0.preEnergy                54063570                       # Energy for precharge commands per rank (pJ)
system.mem_ctrls1_0.readEnergy              233228100                       # Energy for read commands per rank (pJ)
system.mem_ctrls1_0.writeEnergy             117460440                       # Energy for write commands per rank (pJ)
system.mem_ctrls1_0.refreshEnergy        8780747040.000002                       # Energy for refresh commands per rank (pJ)
system.mem_ctrls1_0.actBackEnergy          2933573970                       # Energy for active background per rank (pJ)
system.mem_ctrls1_0.preBackEnergy           528367200                       # Energy for precharge background per rank (pJ)
system.mem_ctrls1_0.actPowerDownEnergy    22013043180                       # Energy for active power-down per rank (pJ)
system.mem_ctrls1_0.prePowerDownEnergy    12127657920                       # Energy for precharge power-down per rank (pJ)
system.mem_ctrls1_0.selfRefreshEnergy    1316888100285                       # Energy for self refresh per rank (pJ)
system.mem_ctrls1_0.totalEnergy          1363780379115                       # Total energy per rank (pJ)
system.mem_ctrls1_0.averagePower           244.966274                       # Core power per rank (mW)
system.mem_ctrls1_0.totalIdleTime        336834661750                       # Total Idle time Per DRAM Rank
system.mem_ctrls1_0.memoryStateTime::IDLE    518430000                       # Time in different power states
system.mem_ctrls1_0.memoryStateTime::REF   1778254000                       # Time in different power states
system.mem_ctrls1_0.memoryStateTime::SREF 300767027000                       # Time in different power states
system.mem_ctrls1_0.memoryStateTime::PRE_PDN  15227353250                       # Time in different power states
system.mem_ctrls1_0.memoryStateTime::ACT   1959468500                       # Time in different power states
system.mem_ctrls1_0.memoryStateTime::ACT_PDN  22154212250                       # Time in different power states
system.mem_ctrls1_1.actEnergy                94083780                       # Energy for activate commands per rank (pJ)
system.mem_ctrls1_1.preEnergy                50006715                       # Energy for precharge commands per rank (pJ)
system.mem_ctrls1_1.readEnergy              229536720                       # Energy for read commands per rank (pJ)
system.mem_ctrls1_1.writeEnergy             117726660                       # Energy for write commands per rank (pJ)
system.mem_ctrls1_1.refreshEnergy        8013061680.000002                       # Energy for refresh commands per rank (pJ)
system.mem_ctrls1_1.actBackEnergy          2866060890                       # Energy for active background per rank (pJ)
system.mem_ctrls1_1.preBackEnergy           438378720                       # Energy for precharge background per rank (pJ)
system.mem_ctrls1_1.actPowerDownEnergy    20784105510                       # Energy for active power-down per rank (pJ)
system.mem_ctrls1_1.prePowerDownEnergy    10733520000                       # Energy for precharge power-down per rank (pJ)
system.mem_ctrls1_1.selfRefreshEnergy    1318268056305                       # Energy for self refresh per rank (pJ)
system.mem_ctrls1_1.totalEnergy          1361596583070                       # Total energy per rank (pJ)
system.mem_ctrls1_1.averagePower           244.574014                       # Core power per rank (mW)
system.mem_ctrls1_1.totalIdleTime        336672674250                       # Total Idle time Per DRAM Rank
system.mem_ctrls1_1.memoryStateTime::IDLE    409045000                       # Time in different power states
system.mem_ctrls1_1.memoryStateTime::REF   1684184000                       # Time in different power states
system.mem_ctrls1_1.memoryStateTime::SREF 302122999500                       # Time in different power states
system.mem_ctrls1_1.memoryStateTime::PRE_PDN  14236895500                       # Time in different power states
system.mem_ctrls1_1.memoryStateTime::ACT   2093441500                       # Time in different power states
system.mem_ctrls1_1.memoryStateTime::ACT_PDN  21630216000                       # Time in different power states
system.mem_ctrls2.pwrStateResidencyTicks::UNDEFINED 5567216890500                       # Cumulative time (in ticks) in various power states
system.mem_ctrls2.bytes_read::ruby.dir_cntrl2      2002688                       # Number of bytes read from this memory
system.mem_ctrls2.bytes_read::total           2002688                       # Number of bytes read from this memory
system.mem_ctrls2.bytes_written::ruby.dir_cntrl2      2360256                       # Number of bytes written to this memory
system.mem_ctrls2.bytes_written::total        2360256                       # Number of bytes written to this memory
system.mem_ctrls2.num_reads::ruby.dir_cntrl2        31292                       # Number of read requests responded to by this memory
system.mem_ctrls2.num_reads::total              31292                       # Number of read requests responded to by this memory
system.mem_ctrls2.num_writes::ruby.dir_cntrl2        36879                       # Number of write requests responded to by this memory
system.mem_ctrls2.num_writes::total             36879                       # Number of write requests responded to by this memory
system.mem_ctrls2.bw_read::ruby.dir_cntrl2      5910773                       # Total read bandwidth from this memory (bytes/s)
system.mem_ctrls2.bw_read::total              5910773                       # Total read bandwidth from this memory (bytes/s)
system.mem_ctrls2.bw_write::ruby.dir_cntrl2      6966106                       # Write bandwidth from this memory (bytes/s)
system.mem_ctrls2.bw_write::total             6966106                       # Write bandwidth from this memory (bytes/s)
system.mem_ctrls2.bw_total::ruby.dir_cntrl2     12876879                       # Total bandwidth to/from this memory (bytes/s)
system.mem_ctrls2.bw_total::total            12876879                       # Total bandwidth to/from this memory (bytes/s)
system.mem_ctrls2.readReqs                      31292                       # Number of read requests accepted
system.mem_ctrls2.writeReqs                     36879                       # Number of write requests accepted
system.mem_ctrls2.readBursts                    31292                       # Number of DRAM read bursts, including those serviced by the write queue
system.mem_ctrls2.writeBursts                   36879                       # Number of DRAM write bursts, including those merged in the write queue
system.mem_ctrls2.bytesReadDRAM               1988096                       # Total number of bytes read from DRAM
system.mem_ctrls2.bytesReadWrQ                  14592                       # Total number of bytes read from write queue
system.mem_ctrls2.bytesWritten                2360192                       # Total number of bytes written to DRAM
system.mem_ctrls2.bytesReadSys                2002688                       # Total read bytes from the system interface side
system.mem_ctrls2.bytesWrittenSys             2360256                       # Total written bytes from the system interface side
system.mem_ctrls2.servicedByWrQ                   228                       # Number of DRAM read bursts serviced by the write queue
system.mem_ctrls2.mergedWrBursts                    0                       # Number of DRAM write bursts merged with an existing one
system.mem_ctrls2.neitherReadNorWriteReqs            0                       # Number of requests that are neither read nor write
system.mem_ctrls2.perBankRdBursts::0             2083                       # Per bank write bursts
system.mem_ctrls2.perBankRdBursts::1             2046                       # Per bank write bursts
system.mem_ctrls2.perBankRdBursts::2             2007                       # Per bank write bursts
system.mem_ctrls2.perBankRdBursts::3             1964                       # Per bank write bursts
system.mem_ctrls2.perBankRdBursts::4             1842                       # Per bank write bursts
system.mem_ctrls2.perBankRdBursts::5             1939                       # Per bank write bursts
system.mem_ctrls2.perBankRdBursts::6             1898                       # Per bank write bursts
system.mem_ctrls2.perBankRdBursts::7             1899                       # Per bank write bursts
system.mem_ctrls2.perBankRdBursts::8             1860                       # Per bank write bursts
system.mem_ctrls2.perBankRdBursts::9             1926                       # Per bank write bursts
system.mem_ctrls2.perBankRdBursts::10            1936                       # Per bank write bursts
system.mem_ctrls2.perBankRdBursts::11            1860                       # Per bank write bursts
system.mem_ctrls2.perBankRdBursts::12            1755                       # Per bank write bursts
system.mem_ctrls2.perBankRdBursts::13            1844                       # Per bank write bursts
system.mem_ctrls2.perBankRdBursts::14            2087                       # Per bank write bursts
system.mem_ctrls2.perBankRdBursts::15            2118                       # Per bank write bursts
system.mem_ctrls2.perBankWrBursts::0             2412                       # Per bank write bursts
system.mem_ctrls2.perBankWrBursts::1             2282                       # Per bank write bursts
system.mem_ctrls2.perBankWrBursts::2             2341                       # Per bank write bursts
system.mem_ctrls2.perBankWrBursts::3             2295                       # Per bank write bursts
system.mem_ctrls2.perBankWrBursts::4             2197                       # Per bank write bursts
system.mem_ctrls2.perBankWrBursts::5             2114                       # Per bank write bursts
system.mem_ctrls2.perBankWrBursts::6             2126                       # Per bank write bursts
system.mem_ctrls2.perBankWrBursts::7             2255                       # Per bank write bursts
[...]
system.ruby.L1Cache_Controller.IS.Data_all_Acks::total      1395316                      
system.ruby.L1Cache_Controller.IS.WB_Ack |     2052254    100.00%    100.00% |           0      0.00%    100.00% |           0      0.00%    100.00% |           0      0.00%    100.00% |           0      0.00%    100.00% |           0      0.00%    100.00% |           0      0.00%    100.00% |           0      0.00%    100.00%
system.ruby.L1Cache_Controller.IS.WB_Ack::total      2052254                      
system.ruby.L1Cache_Controller.IS.PF_Load |      778643    100.00%    100.00% |           0      0.00%    100.00% |           0      0.00%    100.00% |           0      0.00%    100.00% |           0      0.00%    100.00% |           0      0.00%    100.00% |           0      0.00%    100.00% |           0      0.00%    100.00%
system.ruby.L1Cache_Controller.IS.PF_Load::total       778643                      
system.ruby.L1Cache_Controller.IS.PF_Ifetch |     1394480    100.00%    100.00% |           0      0.00%    100.00% |           0      0.00%    100.00% |           0      0.00%    100.00% |           0      0.00%    100.00% |           0      0.00%    100.00% |           0      0.00%    100.00% |           0      0.00%    100.00%
system.ruby.L1Cache_Controller.IS.PF_Ifetch::total      1394480                      
system.ruby.L1Cache_Controller.IM.Data_all_Acks |      670018    100.00%    100.00% |           0      0.00%    100.00% |           0      0.00%    100.00% |           0      0.00%    100.00% |           0      0.00%    100.00% |           0      0.00%    100.00% |           0      0.00%    100.00% |           0      0.00%    100.00%
system.ruby.L1Cache_Controller.IM.Data_all_Acks::total       670018                      
system.ruby.L1Cache_Controller.IM.PF_Store |      548303    100.00%    100.00% |           0      0.00%    100.00% |           0      0.00%    100.00% |           0      0.00%    100.00% |           0      0.00%    100.00% |           0      0.00%    100.00% |           0      0.00%    100.00% |           0      0.00%    100.00%
system.ruby.L1Cache_Controller.IM.PF_Store::total       548303                      
system.ruby.L1Cache_Controller.SM.Fwd_GETX |      121697    100.00%    100.00% |           0      0.00%    100.00% |           0      0.00%    100.00% |           0      0.00%    100.00% |           0      0.00%    100.00% |           0      0.00%    100.00% |           0      0.00%    100.00% |           0      0.00%    100.00%
system.ruby.L1Cache_Controller.SM.Fwd_GETX::total       121697                      
system.ruby.L1Cache_Controller.M_I.WB_Ack |      670014    100.00%    100.00% |           0      0.00%    100.00% |           0      0.00%    100.00% |           0      0.00%    100.00% |           0      0.00%    100.00% |           0      0.00%    100.00% |           0      0.00%    100.00% |           0      0.00%    100.00%
system.ruby.L1Cache_Controller.M_I.WB_Ack::total       670014                      
system.ruby.L2Cache_Controller.L1_GET_INSTR |      149693     10.73%     10.73% |      172449     12.36%     23.09% |      162024     11.61%     34.70% |      174260     12.49%     47.19% |      180464     12.93%     60.13% |      190383     13.65%     73.77% |      195560     14.02%     87.79% |      170368     12.21%    100.00%
system.ruby.L2Cache_Controller.L1_GET_INSTR::total      1395201                      
system.ruby.L2Cache_Controller.L1_GETS   |      117991     15.15%     15.15% |      100816     12.94%     28.09% |      100182     12.86%     40.95% |       89869     11.54%     52.49% |       87758     11.27%     63.75% |       93488     12.00%     75.75% |       87604     11.25%     87.00% |      101271     13.00%    100.00%
system.ruby.L2Cache_Controller.L1_GETS::total       778979                      
system.ruby.L2Cache_Controller.L1_GETX   |       91054     13.59%     13.59% |       83118     12.41%     26.00% |       84612     12.63%     38.62% |       81552     12.17%     50.80% |       80186     11.97%     62.76% |       84671     12.64%     75.40% |       80883     12.07%     87.47% |       83942     12.53%    100.00%
system.ruby.L2Cache_Controller.L1_GETX::total       670018                      
system.ruby.L2Cache_Controller.L1_PUTX   |      338798     12.45%     12.45% |      341498     12.54%     24.99% |      332431     12.21%     37.20% |      330834     12.15%     49.35% |      334885     12.30%     61.66% |      354311     13.02%     74.67% |      350570     12.88%     87.55% |      338941     12.45%    100.00%
system.ruby.L2Cache_Controller.L1_PUTX::total      2722268                      
system.ruby.L2Cache_Controller.L2_Replacement |       26681     12.48%     12.48% |       26929     12.60%     25.07% |       26665     12.47%     37.55% |       26928     12.59%     50.14% |       26704     12.49%     62.63% |       26813     12.54%     75.17% |       26500     12.39%     87.57% |       26586     12.43%    100.00%
system.ruby.L2Cache_Controller.L2_Replacement::total       213806                      
system.ruby.L2Cache_Controller.L2_Replacement_clean |        3049     12.93%     12.93% |        2952     12.52%     25.46% |        2975     12.62%     38.08% |        2860     12.13%     50.21% |        2909     12.34%     62.55% |        2879     12.21%     74.76% |        2948     12.51%     87.27% |        3001     12.73%    100.00%
system.ruby.L2Cache_Controller.L2_Replacement_clean::total        23573                      
system.ruby.L2Cache_Controller.Mem_Data  |       31548     12.60%     12.60% |       31334     12.51%     25.10% |       31292     12.49%     37.60% |       31277     12.49%     50.08% |       31238     12.47%     62.56% |       31237     12.47%     75.03% |       31279     12.49%     87.51% |       31273     12.49%    100.00%
system.ruby.L2Cache_Controller.Mem_Data::total       250478                      
system.ruby.L2Cache_Controller.Mem_Ack   |       30166     12.61%     12.61% |       30098     12.58%     25.19% |       29843     12.47%     37.66% |       29991     12.54%     50.20% |       29816     12.46%     62.66% |       29895     12.49%     75.15% |       29653     12.39%     87.55% |       29796     12.45%    100.00%
system.ruby.L2Cache_Controller.Mem_Ack::total       239258                      
system.ruby.L2Cache_Controller.WB_Data   |         219    100.00%    100.00% |           0      0.00%    100.00% |           0      0.00%    100.00% |           0      0.00%    100.00% |           0      0.00%    100.00% |           0      0.00%    100.00% |           0      0.00%    100.00% |           0      0.00%    100.00%
system.ruby.L2Cache_Controller.WB_Data::total          219                      
system.ruby.L2Cache_Controller.Ack_all   |         842     12.76%     12.76% |         833     12.63%     25.39% |         816     12.37%     37.76% |         770     11.67%     49.43% |         802     12.16%     61.59% |         824     12.49%     74.08% |         851     12.90%     86.98% |         859     13.02%    100.00%
system.ruby.L2Cache_Controller.Ack_all::total         6597                      
system.ruby.L2Cache_Controller.Unblock   |      209045     14.43%     14.43% |      183932     12.69%     27.12% |      184718     12.75%     39.87% |      171393     11.83%     51.70% |      167943     11.59%     63.29% |      178158     12.30%     75.59% |      168481     11.63%     87.22% |      185212     12.78%    100.00%
system.ruby.L2Cache_Controller.Unblock::total      1448882                      
system.ruby.L2Cache_Controller.MEM_Inv   |         872     23.20%     23.20% |         434     11.55%     34.75% |         406     10.80%     45.56% |         406     10.80%     56.36% |         406     10.80%     67.16% |         406     10.80%     77.97% |         410     10.91%     88.88% |         418     11.12%    100.00%
system.ruby.L2Cache_Controller.MEM_Inv::total         3758                      
system.ruby.L2Cache_Controller.NP.L1_GET_INSTR |         740     12.13%     12.13% |         767     12.57%     24.70% |         781     12.80%     37.50% |         756     12.39%     49.89% |         743     12.18%     62.06% |         752     12.32%     74.39% |         788     12.91%     87.30% |         775     12.70%    100.00%
system.ruby.L2Cache_Controller.NP.L1_GET_INSTR::total         6102                      
system.ruby.L2Cache_Controller.NP.L1_GETS |        6710     12.93%     12.93% |        6418     12.37%     25.30% |        6447     12.43%     37.73% |        6581     12.68%     50.41% |        6375     12.29%     62.70% |        6552     12.63%     75.33% |        6498     12.52%     87.85% |        6303     12.15%    100.00%
system.ruby.L2Cache_Controller.NP.L1_GETS::total        51884                      
system.ruby.L2Cache_Controller.NP.L1_GETX |       24098     12.52%     12.52% |       24149     12.55%     25.06% |       24064     12.50%     37.57% |       23940     12.44%     50.00% |       24120     12.53%     62.53% |       23933     12.43%     74.97% |       23993     12.46%     87.43% |       24195     12.57%    100.00%
system.ruby.L2Cache_Controller.NP.L1_GETX::total       192492                      
system.ruby.L2Cache_Controller.SS.L1_GET_INSTR |      148952     10.72%     10.72% |      171681     12.36%     23.08% |      161240     11.61%     34.69% |      173504     12.49%     47.18% |      179720     12.94%     60.12% |      189629     13.65%     73.77% |      194770     14.02%     87.79% |      169593     12.21%    100.00%
system.ruby.L2Cache_Controller.SS.L1_GET_INSTR::total      1389089                      
system.ruby.L2Cache_Controller.SS.L1_GETS |           0      0.00%      0.00% |           2      1.74%      1.74% |          76     66.09%     67.83% |          28     24.35%     92.17% |           1      0.87%     93.04% |           1      0.87%     93.91% |           6      5.22%     99.13% |           1      0.87%    100.00%
system.ruby.L2Cache_Controller.SS.L1_GETS::total          115                      
system.ruby.L2Cache_Controller.SS.L1_PUTX |      149693     10.73%     10.73% |      172451     12.36%     23.09% |      162101     11.62%     34.71% |      174288     12.49%     47.20% |      180465     12.93%     60.13% |      190384     13.64%     73.77% |      195566     14.02%     87.79% |      170369     12.21%    100.00%
system.ruby.L2Cache_Controller.SS.L1_PUTX::total      1395317                      
system.ruby.L2Cache_Controller.SS.L2_Replacement |           0      0.00%      0.00% |           0      0.00%      0.00% |           0      0.00%      0.00% |           0      0.00%      0.00% |           0      0.00%      0.00% |           1    100.00%    100.00% |           0      0.00%    100.00% |           0      0.00%    100.00%
system.ruby.L2Cache_Controller.SS.L2_Replacement::total            1                      
system.ruby.L2Cache_Controller.SS.L2_Replacement_clean |         840     12.76%     12.76% |         831     12.62%     25.38% |         815     12.38%     37.76% |         769     11.68%     49.45% |         800     12.15%     61.60% |         821     12.47%     74.07% |         849     12.90%     86.97% |         858     13.03%    100.00%
system.ruby.L2Cache_Controller.SS.L2_Replacement_clean::total         6583                      
system.ruby.L2Cache_Controller.M.L1_GET_INSTR |           1     10.00%     10.00% |           1     10.00%     20.00% |           3     30.00%     50.00% |           0      0.00%     50.00% |           1     10.00%     60.00% |           2     20.00%     80.00% |           2     20.00%    100.00% |           0      0.00%    100.00%
system.ruby.L2Cache_Controller.M.L1_GET_INSTR::total           10                      
system.ruby.L2Cache_Controller.M.L1_GETS |      111281     15.31%     15.31% |       94396     12.98%     28.29% |       93659     12.88%     41.18% |       83260     11.45%     52.63% |       81382     11.19%     63.82% |       86935     11.96%     75.78% |       81100     11.16%     86.94% |       94967     13.06%    100.00%
system.ruby.L2Cache_Controller.M.L1_GETS::total       726980                      
system.ruby.L2Cache_Controller.M.L1_GETX |       47237     13.28%     13.28% |       44087     12.39%     25.67% |       46162     12.97%     38.64% |       42766     12.02%     50.66% |       42545     11.96%     62.61% |       46509     13.07%     75.68% |       43415     12.20%     87.89% |       43108     12.11%    100.00%
system.ruby.L2Cache_Controller.M.L1_GETX::total       355829                      
system.ruby.L2Cache_Controller.M.L2_Replacement |       26681     12.48%     12.48% |       26929     12.60%     25.07% |       26665     12.47%     37.55% |       26928     12.59%     50.14% |       26704     12.49%     62.63% |       26812     12.54%     75.17% |       26500     12.39%     87.57% |       26586     12.43%    100.00%
system.ruby.L2Cache_Controller.M.L2_Replacement::total       213805                      
system.ruby.L2Cache_Controller.M.L2_Replacement_clean |        2209     13.00%     13.00% |        2121     12.48%     25.49% |        2160     12.71%     38.20% |        2091     12.31%     50.51% |        2109     12.41%     62.92% |        2058     12.11%     75.03% |        2099     12.35%     87.39% |        2143     12.61%    100.00%
system.ruby.L2Cache_Controller.M.L2_Replacement_clean::total        16990                      
system.ruby.L2Cache_Controller.M.MEM_Inv |         215     13.05%     13.05% |         215     13.05%     26.11% |         202     12.26%     38.37% |         202     12.26%     50.64% |         201     12.20%     62.84% |         201     12.20%     75.05% |         203     12.33%     87.37% |         208     12.63%    100.00%
system.ruby.L2Cache_Controller.M.MEM_Inv::total         1647                      
system.ruby.L2Cache_Controller.MT.L1_GETX |       19719     16.20%     16.20% |       14882     12.23%     28.43% |       14386     11.82%     40.25% |       14846     12.20%     52.45% |       13521     11.11%     63.56% |       14229     11.69%     75.25% |       13475     11.07%     86.33% |       16639     13.67%    100.00%
system.ruby.L2Cache_Controller.MT.L1_GETX::total       121697                      
system.ruby.L2Cache_Controller.MT.L1_PUTX |      189105     14.25%     14.25% |      169047     12.74%     26.99% |      170330     12.84%     39.83% |      156546     11.80%     51.62% |      154420     11.64%     63.26% |      163927     12.35%     75.62% |      155004     11.68%     87.30% |      168572     12.70%    100.00%
system.ruby.L2Cache_Controller.MT.L1_PUTX::total      1326951                      
system.ruby.L2Cache_Controller.MT.MEM_Inv |         221     95.26%     95.26% |           2      0.86%     96.12% |           1      0.43%     96.55% |           1      0.43%     96.98% |           2      0.86%     97.84% |           2      0.86%     98.71% |           2      0.86%     99.57% |           1      0.43%    100.00%
system.ruby.L2Cache_Controller.MT.MEM_Inv::total          232                      
system.ruby.L2Cache_Controller.M_I.Mem_Ack |       30166     12.61%     12.61% |       30098     12.58%     25.19% |       29843     12.47%     37.66% |       29991     12.54%     50.20% |       29816     12.46%     62.66% |       29895     12.49%     75.15% |       29653     12.39%     87.55% |       29796     12.45%    100.00%
system.ruby.L2Cache_Controller.M_I.Mem_Ack::total       239258                      
system.ruby.L2Cache_Controller.M_I.MEM_Inv |         215     13.05%     13.05% |         215     13.05%     26.11% |         202     12.26%     38.37% |         202     12.26%     50.64% |         201     12.20%     62.84% |         201     12.20%     75.05% |         203     12.33%     87.37% |         208     12.63%    100.00%
system.ruby.L2Cache_Controller.M_I.MEM_Inv::total         1647                      
system.ruby.L2Cache_Controller.MT_I.WB_Data |         219    100.00%    100.00% |           0      0.00%    100.00% |           0      0.00%    100.00% |           0      0.00%    100.00% |           0      0.00%    100.00% |           0      0.00%    100.00% |           0      0.00%    100.00% |           0      0.00%    100.00%
system.ruby.L2Cache_Controller.MT_I.WB_Data::total          219                      
system.ruby.L2Cache_Controller.MT_I.Ack_all |           2     15.38%     15.38% |           2     15.38%     30.77% |           1      7.69%     38.46% |           1      7.69%     46.15% |           2     15.38%     61.54% |           2     15.38%     76.92% |           2     15.38%     92.31% |           1      7.69%    100.00%
system.ruby.L2Cache_Controller.MT_I.Ack_all::total           13                      
system.ruby.L2Cache_Controller.MT_I.MEM_Inv |         221     95.26%     95.26% |           2      0.86%     96.12% |           1      0.43%     96.55% |           1      0.43%     96.98% |           2      0.86%     97.84% |           2      0.86%     98.71% |           2      0.86%     99.57% |           1      0.43%    100.00%
system.ruby.L2Cache_Controller.MT_I.MEM_Inv::total          232                      
system.ruby.L2Cache_Controller.I_I.Ack_all |         840     12.76%     12.76% |         831     12.62%     25.38% |         815     12.38%     37.76% |         769     11.68%     49.45% |         800     12.15%     61.60% |         821     12.47%     74.07% |         849     12.90%     86.97% |         858     13.03%    100.00%
system.ruby.L2Cache_Controller.I_I.Ack_all::total         6583                      
system.ruby.L2Cache_Controller.S_I.Ack_all |           0      0.00%      0.00% |           0      0.00%      0.00% |           0      0.00%      0.00% |           0      0.00%      0.00% |           0      0.00%      0.00% |           1    100.00%    100.00% |           0      0.00%    100.00% |           0      0.00%    100.00%
system.ruby.L2Cache_Controller.S_I.Ack_all::total            1                      
system.ruby.L2Cache_Controller.ISS.Mem_Data |        6710     12.93%     12.93% |        6418     12.37%     25.30% |        6447     12.43%     37.73% |        6581     12.68%     50.41% |        6375     12.29%     62.70% |        6552     12.63%     75.33% |        6498     12.52%     87.85% |        6303     12.15%    100.00%
system.ruby.L2Cache_Controller.ISS.Mem_Data::total        51884                      
system.ruby.L2Cache_Controller.IS.Mem_Data |         740     12.13%     12.13% |         767     12.57%     24.70% |         781     12.80%     37.50% |         756     12.39%     49.89% |         743     12.18%     62.06% |         752     12.32%     74.39% |         788     12.91%     87.30% |         775     12.70%    100.00%
system.ruby.L2Cache_Controller.IS.Mem_Data::total         6102                      
system.ruby.L2Cache_Controller.IM.Mem_Data |       24098     12.52%     12.52% |       24149     12.55%     25.06% |       24064     12.50%     37.57% |       23940     12.44%     50.00% |       24120     12.53%     62.53% |       23933     12.43%     74.97% |       23993     12.46%     87.43% |       24195     12.57%    100.00%
system.ruby.L2Cache_Controller.IM.Mem_Data::total       192492                      
system.ruby.L2Cache_Controller.MT_MB.Unblock |      209045     14.43%     14.43% |      183932     12.69%     27.12% |      184718     12.75%     39.87% |      171393     11.83%     51.70% |      167943     11.59%     63.29% |      178158     12.30%     75.59% |      168481     11.63%     87.22% |      185212     12.78%    100.00%
system.ruby.L2Cache_Controller.MT_MB.Unblock::total      1448882                      

---------- End Simulation Statistics   ----------
