
---------- Begin Simulation Statistics ----------
sim_seconds                                  0.128225                       # Number of seconds simulated
sim_ticks                                128224845000                       # Number of ticks simulated
final_tick                               128224845000                       # Number of ticks from beginning of simulation (restored from checkpoints and never reset)
sim_freq                                 1000000000000                       # Frequency of simulated ticks
host_inst_rate                                 536935                       # Simulator instruction rate (inst/s)
host_op_rate                                   558675                       # Simulator op (including micro ops) rate (op/s)
host_tick_rate                              170944859                       # Simulator tick rate (ticks/s)
host_mem_usage                                 676368                       # Number of bytes of host memory used
host_seconds                                   750.09                       # Real time elapsed on the host
sim_insts                                   402752346                       # Number of instructions simulated
sim_ops                                     419059294                       # Number of ops (including micro ops) simulated
system.voltage_domain.voltage                       1                       # Voltage in Volts
system.clk_domain.clock                          1000                       # Clock period in ticks
system.mem_ctrls.pwrStateResidencyTicks::UNDEFINED 128224845000                       # Cumulative time (in ticks) in various power states
system.mem_ctrls.bytes_read::cpu.inst           68160                       # Number of bytes read from this memory
system.mem_ctrls.bytes_read::cpu.data           42176                       # Number of bytes read from this memory
system.mem_ctrls.bytes_read::l2.prefetcher        98240                       # Number of bytes read from this memory
system.mem_ctrls.bytes_read::total             208576                       # Number of bytes read from this memory
system.mem_ctrls.bytes_inst_read::cpu.inst        68160                       # Number of instructions bytes read from this memory
system.mem_ctrls.bytes_inst_read::total         68160                       # Number of instructions bytes read from this memory
system.mem_ctrls.num_reads::cpu.inst             1065                       # Number of read requests responded to by this memory
system.mem_ctrls.num_reads::cpu.data              659                       # Number of read requests responded to by this memory
system.mem_ctrls.num_reads::l2.prefetcher         1535                       # Number of read requests responded to by this memory
system.mem_ctrls.num_reads::total                3259                       # Number of read requests responded to by this memory
system.mem_ctrls.bw_read::cpu.inst             531566                       # Total read bandwidth from this memory (bytes/s)
system.mem_ctrls.bw_read::cpu.data             328922                       # Total read bandwidth from this memory (bytes/s)
system.mem_ctrls.bw_read::l2.prefetcher        766154                       # Total read bandwidth from this memory (bytes/s)
system.mem_ctrls.bw_read::total               1626643                       # Total read bandwidth from this memory (bytes/s)
system.mem_ctrls.bw_inst_read::cpu.inst        531566                       # Instruction read bandwidth from this memory (bytes/s)
system.mem_ctrls.bw_inst_read::total           531566                       # Instruction read bandwidth from this memory (bytes/s)
system.mem_ctrls.bw_total::cpu.inst            531566                       # Total bandwidth to/from this memory (bytes/s)
system.mem_ctrls.bw_total::cpu.data            328922                       # Total bandwidth to/from this memory (bytes/s)
system.mem_ctrls.bw_total::l2.prefetcher       766154                       # Total bandwidth to/from this memory (bytes/s)
system.mem_ctrls.bw_total::total              1626643                       # Total bandwidth to/from this memory (bytes/s)
system.mem_ctrls.readReqs                        3259                       # Number of read requests accepted
system.mem_ctrls.writeReqs                          0                       # Number of write requests accepted
system.mem_ctrls.readBursts                      3259                       # Number of DRAM read bursts, including those serviced by the write queue
system.mem_ctrls.writeBursts                        0                       # Number of DRAM write bursts, including those merged in the write queue
system.mem_ctrls.bytesReadDRAM                 208576                       # Total number of bytes read from DRAM
system.mem_ctrls.bytesReadWrQ                       0                       # Total number of bytes read from write queue
system.mem_ctrls.bytesWritten                       0                       # Total number of bytes written to DRAM
system.mem_ctrls.bytesReadSys                  208576                       # Total read bytes from the system interface side
system.mem_ctrls.bytesWrittenSys                    0                       # Total written bytes from the system interface side
system.mem_ctrls.servicedByWrQ                      0                       # Number of DRAM read bursts serviced by the write queue
system.mem_ctrls.mergedWrBursts                     0                       # Number of DRAM write bursts merged with an existing one
system.mem_ctrls.neitherReadNorWriteReqs            0                       # Number of requests that are neither read nor write
system.mem_ctrls.perBankRdBursts::0               119                       # Per bank write bursts
system.mem_ctrls.perBankRdBursts::1               161                       # Per bank write bursts
system.mem_ctrls.perBankRdBursts::2               224                       # Per bank write bursts
system.mem_ctrls.perBankRdBursts::3               273                       # Per bank write bursts
system.mem_ctrls.perBankRdBursts::4               258                       # Per bank write bursts
system.mem_ctrls.perBankRdBursts::5               289                       # Per bank write bursts
system.mem_ctrls.perBankRdBursts::6               216                       # Per bank write bursts
system.mem_ctrls.perBankRdBursts::7               260                       # Per bank write bursts
system.mem_ctrls.perBankRdBursts::8               205                       # Per bank write bursts
system.mem_ctrls.perBankRdBursts::9               140                       # Per bank write bursts
system.mem_ctrls.perBankRdBursts::10              241                       # Per bank write bursts
system.mem_ctrls.perBankRdBursts::11              151                       # Per bank write bursts
system.mem_ctrls.perBankRdBursts::12              206                       # Per bank write bursts
system.mem_ctrls.perBankRdBursts::13              404                       # Per bank write bursts
system.mem_ctrls.perBankRdBursts::14               72                       # Per bank write bursts
system.mem_ctrls.perBankRdBursts::15               40                       # Per bank write bursts
system.mem_ctrls.perBankWrBursts::0                 0                       # Per bank write bursts
system.mem_ctrls.perBankWrBursts::1                 0                       # Per bank write bursts
system.mem_ctrls.perBankWrBursts::2                 0                       # Per bank write bursts
system.mem_ctrls.perBankWrBursts::3                 0                       # Per bank write bursts
system.mem_ctrls.perBankWrBursts::4                 0                       # Per bank write bursts
system.mem_ctrls.perBankWrBursts::5                 0                       # Per bank write bursts
system.mem_ctrls.perBankWrBursts::6                 0                       # Per bank write bursts
system.mem_ctrls.perBankWrBursts::7                 0                       # Per bank write bursts
system.mem_ctrls.perBankWrBursts::8                 0                       # Per bank write bursts
system.mem_ctrls.perBankWrBursts::9                 0                       # Per bank write bursts
system.mem_ctrls.perBankWrBursts::10                0                       # Per bank write bursts
system.mem_ctrls.perBankWrBursts::11                0                       # Per bank write bursts
system.mem_ctrls.perBankWrBursts::12                0                       # Per bank write bursts
system.mem_ctrls.perBankWrBursts::13                0                       # Per bank write bursts
system.mem_ctrls.perBankWrBursts::14                0                       # Per bank write bursts
system.mem_ctrls.perBankWrBursts::15                0                       # Per bank write bursts
system.mem_ctrls.numRdRetry                         0                       # Number of times read queue was full causing retry
system.mem_ctrls.numWrRetry                         0                       # Number of times write queue was full causing retry
system.mem_ctrls.totGap                  128224777500                       # Total gap between requests
system.mem_ctrls.readPktSize::0                     0                       # Read request sizes (log2)
system.mem_ctrls.readPktSize::1                     0                       # Read request sizes (log2)
system.mem_ctrls.readPktSize::2                     0                       # Read request sizes (log2)
system.mem_ctrls.readPktSize::3                     0                       # Read request sizes (log2)
system.mem_ctrls.readPktSize::4                     0                       # Read request sizes (log2)
system.mem_ctrls.readPktSize::5                     0                       # Read request sizes (log2)
system.mem_ctrls.readPktSize::6                  3259                       # Read request sizes (log2)
system.mem_ctrls.writePktSize::0                    0                       # Write request sizes (log2)
system.mem_ctrls.writePktSize::1                    0                       # Write request sizes (log2)
system.mem_ctrls.writePktSize::2                    0                       # Write request sizes (log2)
system.mem_ctrls.writePktSize::3                    0                       # Write request sizes (log2)
system.mem_ctrls.writePktSize::4                    0                       # Write request sizes (log2)
system.mem_ctrls.writePktSize::5                    0                       # Write request sizes (log2)
system.mem_ctrls.writePktSize::6                    0                       # Write request sizes (log2)
system.mem_ctrls.rdQLenPdf::0                    1333                       # What read queue length does an incoming req see
system.mem_ctrls.rdQLenPdf::1                    1253                       # What read queue length does an incoming req see
system.mem_ctrls.rdQLenPdf::2                     305                       # What read queue length does an incoming req see
system.mem_ctrls.rdQLenPdf::3                     140                       # What read queue length does an incoming req see
system.mem_ctrls.rdQLenPdf::4                      75                       # What read queue length does an incoming req see
system.mem_ctrls.rdQLenPdf::5                      48                       # What read queue length does an incoming req see
system.mem_ctrls.rdQLenPdf::6                      33                       # What read queue length does an incoming req see
system.mem_ctrls.rdQLenPdf::7                      33                       # What read queue length does an incoming req see
system.mem_ctrls.rdQLenPdf::8                      28                       # What read queue length does an incoming req see
system.mem_ctrls.rdQLenPdf::9                       5                       # What read queue length does an incoming req see
system.mem_ctrls.rdQLenPdf::10                      2                       # What read queue length does an incoming req see
system.mem_ctrls.rdQLenPdf::11                      3                       # What read queue length does an incoming req see
system.mem_ctrls.rdQLenPdf::12                      1                       # What read queue length does an incoming req see
system.mem_ctrls.rdQLenPdf::13                      0                       # What read queue length does an incoming req see
system.mem_ctrls.rdQLenPdf::14                      0                       # What read queue length does an incoming req see
system.mem_ctrls.rdQLenPdf::15                      0                       # What read queue length does an incoming req see
system.mem_ctrls.rdQLenPdf::16                      0                       # What read queue length does an incoming req see
system.mem_ctrls.rdQLenPdf::17                      0                       # What read queue length does an incoming req see
system.mem_ctrls.rdQLenPdf::18                      0                       # What read queue length does an incoming req see
system.mem_ctrls.rdQLenPdf::19                      0                       # What read queue length does an incoming req see
system.mem_ctrls.rdQLenPdf::20                      0                       # What read queue length does an incoming req see
system.mem_ctrls.rdQLenPdf::21                      0                       # What read queue length does an incoming req see
system.mem_ctrls.rdQLenPdf::22                      0                       # What read queue length does an incoming req see
system.mem_ctrls.rdQLenPdf::23                      0                       # What read queue length does an incoming req see
system.mem_ctrls.rdQLenPdf::24                      0                       # What read queue length does an incoming req see
system.mem_ctrls.rdQLenPdf::25                      0                       # What read queue length does an incoming req see
system.mem_ctrls.rdQLenPdf::26                      0                       # What read queue length does an incoming req see
system.mem_ctrls.rdQLenPdf::27                      0                       # What read queue length does an incoming req see
system.mem_ctrls.rdQLenPdf::28                      0                       # What read queue length does an incoming req see
system.mem_ctrls.rdQLenPdf::29                      0                       # What read queue length does an incoming req see
system.mem_ctrls.rdQLenPdf::30                      0                       # What read queue length does an incoming req see
system.mem_ctrls.rdQLenPdf::31                      0                       # What read queue length does an incoming req see
system.mem_ctrls.wrQLenPdf::0                       0                       # What write queue length does an incoming req see
system.mem_ctrls.wrQLenPdf::1                       0                       # What write queue length does an incoming req see
system.mem_ctrls.wrQLenPdf::2                       0                       # What write queue length does an incoming req see
system.mem_ctrls.wrQLenPdf::3                       0                       # What write queue length does an incoming req see
system.mem_ctrls.wrQLenPdf::4                       0                       # What write queue length does an incoming req see
system.mem_ctrls.wrQLenPdf::5                       0                       # What write queue length does an incoming req see
system.mem_ctrls.wrQLenPdf::6                       0                       # What write queue length does an incoming req see
system.mem_ctrls.wrQLenPdf::7                       0                       # What write queue length does an incoming req see
system.mem_ctrls.wrQLenPdf::8                       0                       # What write queue length does an incoming req see
system.mem_ctrls.wrQLenPdf::9                       0                       # What write queue length does an incoming req see
system.mem_ctrls.wrQLenPdf::10                      0                       # What write queue length does an incoming req see
system.mem_ctrls.wrQLenPdf::11                      0                       # What write queue length does an incoming req see
system.mem_ctrls.wrQLenPdf::12                      0                       # What write queue length does an incoming req see
system.mem_ctrls.wrQLenPdf::13                      0                       # What write queue length does an incoming req see
system.mem_ctrls.wrQLenPdf::14                      0                       # What write queue length does an incoming req see
system.mem_ctrls.wrQLenPdf::15                      0                       # What write queue length does an incoming req see
system.mem_ctrls.wrQLenPdf::16                      0                       # What write queue length does an incoming req see
system.mem_ctrls.wrQLenPdf::17                      0                       # What write queue length does an incoming req see
system.mem_ctrls.wrQLenPdf::18                      0                       # What write queue length does an incoming req see
system.mem_ctrls.wrQLenPdf::19                      0                       # What write queue length does an incoming req see
system.mem_ctrls.wrQLenPdf::20                      0                       # What write queue length does an incoming req see
system.mem_ctrls.wrQLenPdf::21                      0                       # What write queue length does an incoming req see
system.mem_ctrls.wrQLenPdf::22                      0                       # What write queue length does an incoming req see
system.mem_ctrls.wrQLenPdf::23                      0                       # What write queue length does an incoming req see
system.mem_ctrls.wrQLenPdf::24                      0                       # What write queue length does an incoming req see
system.mem_ctrls.wrQLenPdf::25                      0                       # What write queue length does an incoming req see
system.mem_ctrls.wrQLenPdf::26                      0                       # What write queue length does an incoming req see
system.mem_ctrls.wrQLenPdf::27                      0                       # What write queue length does an incoming req see
system.mem_ctrls.wrQLenPdf::28                      0                       # What write queue length does an incoming req see
system.mem_ctrls.wrQLenPdf::29                      0                       # What write queue length does an incoming req see
system.mem_ctrls.wrQLenPdf::30                      0                       # What write queue length does an incoming req see
system.mem_ctrls.wrQLenPdf::31                      0                       # What write queue length does an incoming req see
system.mem_ctrls.wrQLenPdf::32                      0                       # What write queue length does an incoming req see
system.mem_ctrls.wrQLenPdf::33                      0                       # What write queue length does an incoming req see
system.mem_ctrls.wrQLenPdf::34                      0                       # What write queue length does an incoming req see
system.mem_ctrls.wrQLenPdf::35                      0                       # What write queue length does an incoming req see
system.mem_ctrls.wrQLenPdf::36                      0                       # What write queue length does an incoming req see
system.mem_ctrls.wrQLenPdf::37                      0                       # What write queue length does an incoming req see
system.mem_ctrls.wrQLenPdf::38                      0                       # What write queue length does an incoming req see
system.mem_ctrls.wrQLenPdf::39                      0                       # What write queue length does an incoming req see
system.mem_ctrls.wrQLenPdf::40                      0                       # What write queue length does an incoming req see
system.mem_ctrls.wrQLenPdf::41                      0                       # What write queue length does an incoming req see
system.mem_ctrls.wrQLenPdf::42                      0                       # What write queue length does an incoming req see
system.mem_ctrls.wrQLenPdf::43                      0                       # What write queue length does an incoming req see
system.mem_ctrls.wrQLenPdf::44                      0                       # What write queue length does an incoming req see
system.mem_ctrls.wrQLenPdf::45                      0                       # What write queue length does an incoming req see
system.mem_ctrls.wrQLenPdf::46                      0                       # What write queue length does an incoming req see
system.mem_ctrls.wrQLenPdf::47                      0                       # What write queue length does an incoming req see
system.mem_ctrls.wrQLenPdf::48                      0                       # What write queue length does an incoming req see
system.mem_ctrls.wrQLenPdf::49                      0                       # What write queue length does an incoming req see
system.mem_ctrls.wrQLenPdf::50                      0                       # What write queue length does an incoming req see
system.mem_ctrls.wrQLenPdf::51                      0                       # What write queue length does an incoming req see
system.mem_ctrls.wrQLenPdf::52                      0                       # What write queue length does an incoming req see
system.mem_ctrls.wrQLenPdf::53                      0                       # What write queue length does an incoming req see
system.mem_ctrls.wrQLenPdf::54                      0                       # What write queue length does an incoming req see
system.mem_ctrls.wrQLenPdf::55                      0                       # What write queue length does an incoming req see
system.mem_ctrls.wrQLenPdf::56                      0                       # What write queue length does an incoming req see
system.mem_ctrls.wrQLenPdf::57                      0                       # What write queue length does an incoming req see
system.mem_ctrls.wrQLenPdf::58                      0                       # What write queue length does an incoming req see
system.mem_ctrls.wrQLenPdf::59                      0                       # What write queue length does an incoming req see
system.mem_ctrls.wrQLenPdf::60                      0                       # What write queue length does an incoming req see
system.mem_ctrls.wrQLenPdf::61                      0                       # What write queue length does an incoming req see
system.mem_ctrls.wrQLenPdf::62                      0                       # What write queue length does an incoming req see
system.mem_ctrls.wrQLenPdf::63                      0                       # What write queue length does an incoming req see
system.mem_ctrls.bytesPerActivate::samples          573                       # Bytes accessed per row activation
system.mem_ctrls.bytesPerActivate::mean    361.773124                       # Bytes accessed per row activation
system.mem_ctrls.bytesPerActivate::gmean   207.138422                       # Bytes accessed per row activation
system.mem_ctrls.bytesPerActivate::stdev   370.232337                       # Bytes accessed per row activation
system.mem_ctrls.bytesPerActivate::0-127          192     33.51%     33.51% # Bytes accessed per row activation
system.mem_ctrls.bytesPerActivate::128-255          126     21.99%     55.50% # Bytes accessed per row activation
system.mem_ctrls.bytesPerActivate::256-383           68     11.87%     67.36% # Bytes accessed per row activation
system.mem_ctrls.bytesPerActivate::384-511           35      6.11%     73.47% # Bytes accessed per row activation
system.mem_ctrls.bytesPerActivate::512-639           13      2.27%     75.74% # Bytes accessed per row activation
system.mem_ctrls.bytesPerActivate::640-767           14      2.44%     78.18% # Bytes accessed per row activation
system.mem_ctrls.bytesPerActivate::768-895            6      1.05%     79.23% # Bytes accessed per row activation
system.mem_ctrls.bytesPerActivate::896-1023            3      0.52%     79.76% # Bytes accessed per row activation
system.mem_ctrls.bytesPerActivate::1024-1151          116     20.24%    100.00% # Bytes accessed per row activation
system.mem_ctrls.bytesPerActivate::total          573                       # Bytes accessed per row activation
system.mem_ctrls.totQLat                    144797651                       # Total ticks spent queuing
system.mem_ctrls.totMemAccLat               205903901                       # Total ticks spent from burst creation until serviced by the DRAM
system.mem_ctrls.totBusLat                   16295000                       # Total ticks spent in databus transfers
system.mem_ctrls.avgQLat                     44430.09                       # Average queueing delay per DRAM burst
system.mem_ctrls.avgBusLat                    5000.00                       # Average bus latency per DRAM burst
system.mem_ctrls.avgMemAccLat                63180.09                       # Average memory access latency per DRAM burst
system.mem_ctrls.avgRdBW                         1.63                       # Average DRAM read bandwidth in MiByte/s
system.mem_ctrls.avgWrBW                         0.00                       # Average achieved write bandwidth in MiByte/s
system.mem_ctrls.avgRdBWSys                      1.63                       # Average system read bandwidth in MiByte/s
system.mem_ctrls.avgWrBWSys                      0.00                       # Average system write bandwidth in MiByte/s
system.mem_ctrls.peakBW                      12800.00                       # Theoretical peak bandwidth in MiByte/s
system.mem_ctrls.busUtil                         0.01                       # Data bus utilization in percentage
system.mem_ctrls.busUtilRead                     0.01                       # Data bus utilization in percentage for reads
system.mem_ctrls.busUtilWrite                    0.00                       # Data bus utilization in percentage for writes
system.mem_ctrls.avgRdQLen                       1.52                       # Average read queue length when enqueuing
system.mem_ctrls.avgWrQLen                       0.00                       # Average write queue length when enqueuing
system.mem_ctrls.readRowHits                     2681                       # Number of row buffer hits during reads
system.mem_ctrls.writeRowHits                       0                       # Number of row buffer hits during writes
system.mem_ctrls.readRowHitRate                 82.26                       # Row buffer hit rate for reads
system.mem_ctrls.writeRowHitRate                  nan                       # Row buffer hit rate for writes
system.mem_ctrls.avgGap                   39344822.80                       # Average gap between requests
system.mem_ctrls.pageHitRate                    82.26                       # Row buffer hit rate, read and write combined
system.mem_ctrls_0.actEnergy                  2249100                       # Energy for activate commands per rank (pJ)
system.mem_ctrls_0.preEnergy                  1184040                       # Energy for precharge commands per rank (pJ)
system.mem_ctrls_0.readEnergy                12852000                       # Energy for read commands per rank (pJ)
system.mem_ctrls_0.writeEnergy                      0                       # Energy for write commands per rank (pJ)
system.mem_ctrls_0.refreshEnergy         204675120.000000                       # Energy for refresh commands per rank (pJ)
system.mem_ctrls_0.actBackEnergy             54097560                       # Energy for active background per rank (pJ)
system.mem_ctrls_0.preBackEnergy             13377600                       # Energy for precharge background per rank (pJ)
system.mem_ctrls_0.actPowerDownEnergy       388260060                       # Energy for active power-down per rank (pJ)
system.mem_ctrls_0.prePowerDownEnergy       323683680                       # Energy for precharge power-down per rank (pJ)
system.mem_ctrls_0.selfRefreshEnergy      30387389625                       # Energy for self refresh per rank (pJ)
system.mem_ctrls_0.totalEnergy            31387848735                       # Total energy per rank (pJ)
system.mem_ctrls_0.averagePower            244.787574                       # Core power per rank (mW)
system.mem_ctrls_0.totalIdleTime         128071155049                       # Total Idle time Per DRAM Rank
system.mem_ctrls_0.memoryStateTime::IDLE     27961000                       # Time in different power states
system.mem_ctrls_0.memoryStateTime::REF      87210000                       # Time in different power states
system.mem_ctrls_0.memoryStateTime::SREF 126376822000                       # Time in different power states
system.mem_ctrls_0.memoryStateTime::PRE_PDN    842925979                       # Time in different power states
system.mem_ctrls_0.memoryStateTime::ACT      38483201                       # Time in different power states
system.mem_ctrls_0.memoryStateTime::ACT_PDN    851442820                       # Time in different power states
system.mem_ctrls_1.actEnergy                  1877820                       # Energy for activate commands per rank (pJ)
system.mem_ctrls_1.preEnergy                   990495                       # Energy for precharge commands per rank (pJ)
system.mem_ctrls_1.readEnergy                10417260                       # Energy for read commands per rank (pJ)
system.mem_ctrls_1.writeEnergy                      0                       # Energy for write commands per rank (pJ)
system.mem_ctrls_1.refreshEnergy         169026000.000000                       # Energy for refresh commands per rank (pJ)
system.mem_ctrls_1.actBackEnergy             43958400                       # Energy for active background per rank (pJ)
system.mem_ctrls_1.preBackEnergy             11054400                       # Energy for precharge background per rank (pJ)
system.mem_ctrls_1.actPowerDownEnergy       347958210                       # Energy for active power-down per rank (pJ)
system.mem_ctrls_1.prePowerDownEnergy       248297760                       # Energy for precharge power-down per rank (pJ)
system.mem_ctrls_1.selfRefreshEnergy      30451983960                       # Energy for self refresh per rank (pJ)
system.mem_ctrls_1.totalEnergy            31285564305                       # Total energy per rank (pJ)
system.mem_ctrls_1.averagePower            243.989878                       # Core power per rank (mW)
system.mem_ctrls_1.totalIdleTime         128099042047                       # Total Idle time Per DRAM Rank
system.mem_ctrls_1.memoryStateTime::IDLE     22896500                       # Time in different power states
system.mem_ctrls_1.memoryStateTime::REF      72010000                       # Time in different power states
system.mem_ctrls_1.memoryStateTime::SREF 126689984750                       # Time in different power states
system.mem_ctrls_1.memoryStateTime::PRE_PDN    646610500                       # Time in different power states
system.mem_ctrls_1.memoryStateTime::ACT      30269203                       # Time in different power states
system.mem_ctrls_1.memoryStateTime::ACT_PDN    763074047                       # Time in different power states
system.pwrStateResidencyTicks::UNDEFINED 128224845000                       # Cumulative time (in ticks) in various power states
system.cpu.branchPred.lookups                67621850                       # Number of BP lookups
system.cpu.branchPred.condPredicted          56934084                       # Number of conditional branches predicted
system.cpu.branchPred.condIncorrect           4416139                       # Number of conditional branches incorrect
system.cpu.branchPred.BTBLookups             51024604                       # Number of BTB lookups
system.cpu.branchPred.BTBHits                45844119                       # Number of BTB hits
system.cpu.branchPred.BTBCorrect                    0                       # Number of correct BTB predictions (this stat may not work properly.
system.cpu.branchPred.BTBHitPct             89.847084                       # BTB Hit Percentage
system.cpu.branchPred.usedRAS                 4813412                       # Number of times the RAS was used to get a target.
system.cpu.branchPred.RASInCorrect             136019                       # Number of incorrect RAS predictions.
system.cpu.branchPred.indirectLookups          249288                       # Number of indirect predictor lookups.
system.cpu.branchPred.indirectHits             248503                       # Number of indirect target hits.
system.cpu.branchPred.indirectMisses              785                       # Number of indirect misses.
system.cpu.branchPredindirectMispredicted          386                       # Number of mispredicted indirect branches.
system.cpu_voltage_domain.voltage                   1                       # Voltage in Volts
system.cpu_clk_domain.clock                       500                       # Clock period in ticks
system.cpu.dstage2_mmu.stage2_tlb.walker.pwrStateResidencyTicks::UNDEFINED 128224845000                       # Cumulative time (in ticks) in various power states
system.cpu.dstage2_mmu.stage2_tlb.walker.walks            0                       # Table walker walks requested
system.cpu.dstage2_mmu.stage2_tlb.walker.walkRequestOrigin_Requested::Data            0                       # Table walker requests started/completed, data/inst
system.cpu.dstage2_mmu.stage2_tlb.walker.walkRequestOrigin_Requested::Inst            0                       # Table walker requests started/completed, data/inst
system.cpu.dstage2_mmu.stage2_tlb.walker.walkRequestOrigin_Requested::total            0                       # Table walker requests started/completed, data/inst
system.cpu.dstage2_mmu.stage2_tlb.walker.walkRequestOrigin_Completed::Data            0                       # Table walker requests started/completed, data/inst
system.cpu.dstage2_mmu.stage2_tlb.walker.walkRequestOrigin_Completed::Inst            0                       # Table walker requests started/completed, data/inst
system.cpu.dstage2_mmu.stage2_tlb.walker.walkRequestOrigin_Completed::total            0                       # Table walker requests started/completed, data/inst
system.cpu.dstage2_mmu.stage2_tlb.walker.walkRequestOrigin::total            0                       # Table walker requests started/completed, data/inst
system.cpu.dstage2_mmu.stage2_tlb.inst_hits            0                       # ITB inst hits
system.cpu.dstage2_mmu.stage2_tlb.inst_misses            0                       # ITB inst misses
system.cpu.dstage2_mmu.stage2_tlb.read_hits            0                       # DTB read hits
system.cpu.dstage2_mmu.stage2_tlb.read_misses            0                       # DTB read misses
system.cpu.dstage2_mmu.stage2_tlb.write_hits            0                       # DTB write hits
system.cpu.dstage2_mmu.stage2_tlb.write_misses            0                       # DTB write misses
system.cpu.dstage2_mmu.stage2_tlb.flush_tlb            0                       # Number of times complete TLB was flushed
system.cpu.dstage2_mmu.stage2_tlb.flush_tlb_mva            0                       # Number of times TLB was flushed by MVA
system.cpu.dstage2_mmu.stage2_tlb.flush_tlb_mva_asid            0                       # Number of times TLB was flushed by MVA & ASID
system.cpu.dstage2_mmu.stage2_tlb.flush_tlb_asid            0                       # Number of times TLB was flushed by ASID
system.cpu.dstage2_mmu.stage2_tlb.flush_entries            0                       # Number of entries that have been flushed from TLB
system.cpu.dstage2_mmu.stage2_tlb.align_faults            0                       # Number of TLB faults due to alignment restrictions
system.cpu.dstage2_mmu.stage2_tlb.prefetch_faults            0                       # Number of TLB faults due to prefetch
system.cpu.dstage2_mmu.stage2_tlb.domain_faults            0                       # Number of TLB faults due to domain restrictions
system.cpu.dstage2_mmu.stage2_tlb.perms_faults            0                       # Number of TLB faults due to permissions restrictions
system.cpu.dstage2_mmu.stage2_tlb.read_accesses            0                       # DTB read accesses
system.cpu.dstage2_mmu.stage2_tlb.write_accesses            0                       # DTB write accesses
system.cpu.dstage2_mmu.stage2_tlb.inst_accesses            0                       # ITB inst accesses
system.cpu.dstage2_mmu.stage2_tlb.hits              0                       # DTB hits
system.cpu.dstage2_mmu.stage2_tlb.misses            0                       # DTB misses
system.cpu.dstage2_mmu.stage2_tlb.accesses            0                       # DTB accesses
system.cpu.dtb.walker.pwrStateResidencyTicks::UNDEFINED 128224845000                       # Cumulative time (in ticks) in various power states
system.cpu.dtb.walker.walks                         0                       # Table walker walks requested
system.cpu.dtb.walker.walkRequestOrigin_Requested::Data            0                       # Table walker requests started/completed, data/inst
system.cpu.dtb.walker.walkRequestOrigin_Requested::Inst            0                       # Table walker requests started/completed, data/inst
system.cpu.dtb.walker.walkRequestOrigin_Requested::total            0                       # Table walker requests started/completed, data/inst
system.cpu.dtb.walker.walkRequestOrigin_Completed::Data            0                       # Table walker requests started/completed, data/inst
system.cpu.dtb.walker.walkRequestOrigin_Completed::Inst            0                       # Table walker requests started/completed, data/inst
system.cpu.dtb.walker.walkRequestOrigin_Completed::total            0                       # Table walker requests started/completed, data/inst
system.cpu.dtb.walker.walkRequestOrigin::total            0                       # Table walker requests started/completed, data/inst
system.cpu.dtb.inst_hits                            0                       # ITB inst hits
system.cpu.dtb.inst_misses                          0                       # ITB inst misses
system.cpu.dtb.read_hits                            0                       # DTB read hits
system.cpu.dtb.read_misses                          0                       # DTB read misses
system.cpu.dtb.write_hits                           0                       # DTB write hits
system.cpu.dtb.write_misses                         0                       # DTB write misses
system.cpu.dtb.flush_tlb                            0                       # Number of times complete TLB was flushed
system.cpu.dtb.flush_tlb_mva                        0                       # Number of times TLB was flushed by MVA
system.cpu.dtb.flush_tlb_mva_asid                   0                       # Number of times TLB was flushed by MVA & ASID
system.cpu.dtb.flush_tlb_asid                       0                       # Number of times TLB was flushed by ASID
system.cpu.dtb.flush_entries                        0                       # Number of entries that have been flushed from TLB
system.cpu.dtb.align_faults                         0                       # Number of TLB faults due to alignment restrictions
system.cpu.dtb.prefetch_faults                      0                       # Number of TLB faults due to prefetch
system.cpu.dtb.domain_faults                        0                       # Number of TLB faults due to domain restrictions
system.cpu.dtb.perms_faults                         0                       # Number of TLB faults due to permissions restrictions
system.cpu.dtb.read_accesses                        0                       # DTB read accesses
system.cpu.dtb.write_accesses                       0                       # DTB write accesses
system.cpu.dtb.inst_accesses                        0                       # ITB inst accesses
system.cpu.dtb.hits                                 0                       # DTB hits
system.cpu.dtb.misses                               0                       # DTB misses
system.cpu.dtb.accesses                             0                       # DTB accesses
system.cpu.istage2_mmu.stage2_tlb.walker.pwrStateResidencyTicks::UNDEFINED 128224845000                       # Cumulative time (in ticks) in various power states
system.cpu.istage2_mmu.stage2_tlb.walker.walks            0                       # Table walker walks requested
system.cpu.istage2_mmu.stage2_tlb.walker.walkRequestOrigin_Requested::Data            0                       # Table walker requests started/completed, data/inst
system.cpu.istage2_mmu.stage2_tlb.walker.walkRequestOrigin_Requested::Inst            0                       # Table walker requests started/completed, data/inst
system.cpu.istage2_mmu.stage2_tlb.walker.walkRequestOrigin_Requested::total            0                       # Table walker requests started/completed, data/inst
system.cpu.istage2_mmu.stage2_tlb.walker.walkRequestOrigin_Completed::Data            0                       # Table walker requests started/completed, data/inst
system.cpu.istage2_mmu.stage2_tlb.walker.walkRequestOrigin_Completed::Inst            0                       # Table walker requests started/completed, data/inst
system.cpu.istage2_mmu.stage2_tlb.walker.walkRequestOrigin_Completed::total            0                       # Table walker requests started/completed, data/inst
system.cpu.istage2_mmu.stage2_tlb.walker.walkRequestOrigin::total            0                       # Table walker requests started/completed, data/inst
system.cpu.istage2_mmu.stage2_tlb.inst_hits            0                       # ITB inst hits
system.cpu.istage2_mmu.stage2_tlb.inst_misses            0                       # ITB inst misses
system.cpu.istage2_mmu.stage2_tlb.read_hits            0                       # DTB read hits
system.cpu.istage2_mmu.stage2_tlb.read_misses            0                       # DTB read misses
system.cpu.istage2_mmu.stage2_tlb.write_hits            0                       # DTB write hits
system.cpu.istage2_mmu.stage2_tlb.write_misses            0                       # DTB write misses
system.cpu.istage2_mmu.stage2_tlb.flush_tlb            0                       # Number of times complete TLB was flushed
system.cpu.istage2_mmu.stage2_tlb.flush_tlb_mva            0                       # Number of times TLB was flushed by MVA
system.cpu.istage2_mmu.stage2_tlb.flush_tlb_mva_asid            0                       # Number of times TLB was flushed by MVA & ASID
system.cpu.istage2_mmu.stage2_tlb.flush_tlb_asid            0                       # Number of times TLB was flushed by ASID
system.cpu.istage2_mmu.stage2_tlb.flush_entries            0                       # Number of entries that have been flushed from TLB
system.cpu.istage2_mmu.stage2_tlb.align_faults            0                       # Number of TLB faults due to alignment restrictions
system.cpu.istage2_mmu.stage2_tlb.prefetch_faults            0                       # Number of TLB faults due to prefetch
system.cpu.istage2_mmu.stage2_tlb.domain_faults            0                       # Number of TLB faults due to domain restrictions
system.cpu.istage2_mmu.stage2_tlb.perms_faults            0                       # Number of TLB faults due to permissions restrictions
system.cpu.istage2_mmu.stage2_tlb.read_accesses            0                       # DTB read accesses
system.cpu.istage2_mmu.stage2_tlb.write_accesses            0                       # DTB write accesses
system.cpu.istage2_mmu.stage2_tlb.inst_accesses            0                       # ITB inst accesses
system.cpu.istage2_mmu.stage2_tlb.hits              0                       # DTB hits
system.cpu.istage2_mmu.stage2_tlb.misses            0                       # DTB misses
system.cpu.istage2_mmu.stage2_tlb.accesses            0                       # DTB accesses
system.cpu.itb.walker.pwrStateResidencyTicks::UNDEFINED 128224845000                       # Cumulative time (in ticks) in various power states
system.cpu.itb.walker.walks                         0                       # Table walker walks requested
system.cpu.itb.walker.walkRequestOrigin_Requested::Data            0                       # Table walker requests started/completed, data/inst
system.cpu.itb.walker.walkRequestOrigin_Requested::Inst            0                       # Table walker requests started/completed, data/inst
system.cpu.itb.walker.walkRequestOrigin_Requested::total            0                       # Table walker requests started/completed, data/inst
system.cpu.itb.walker.walkRequestOrigin_Completed::Data            0                       # Table walker requests started/completed, data/inst
system.cpu.itb.walker.walkRequestOrigin_Completed::Inst            0                       # Table walker requests started/completed, data/inst
system.cpu.itb.walker.walkRequestOrigin_Completed::total            0                       # Table walker requests started/completed, data/inst
system.cpu.itb.walker.walkRequestOrigin::total            0                       # Table walker requests started/completed, data/inst
system.cpu.itb.inst_hits                            0                       # ITB inst hits
system.cpu.itb.inst_misses                          0                       # ITB inst misses
system.cpu.itb.read_hits                            0                       # DTB read hits
system.cpu.itb.read_misses                          0                       # DTB read misses
system.cpu.itb.write_hits                           0                       # DTB write hits
system.cpu.itb.write_misses                         0                       # DTB write misses
system.cpu.itb.flush_tlb                            0                       # Number of times complete TLB was flushed
system.cpu.itb.flush_tlb_mva                        0                       # Number of times TLB was flushed by MVA
system.cpu.itb.flush_tlb_mva_asid                   0                       # Number of times TLB was flushed by MVA & ASID
system.cpu.itb.flush_tlb_asid                       0                       # Number of times TLB was flushed by ASID
system.cpu.itb.flush_entries                        0                       # Number of entries that have been flushed from TLB
system.cpu.itb.align_faults                         0                       # Number of TLB faults due to alignment restrictions
system.cpu.itb.prefetch_faults                      0                       # Number of TLB faults due to prefetch
system.cpu.itb.domain_faults                        0                       # Number of TLB faults due to domain restrictions
system.cpu.itb.perms_faults                         0                       # Number of TLB faults due to permissions restrictions
system.cpu.itb.read_accesses                        0                       # DTB read accesses
system.cpu.itb.write_accesses                       0                       # DTB write accesses
system.cpu.itb.inst_accesses                        0                       # ITB inst accesses
system.cpu.itb.hits                                 0                       # DTB hits
system.cpu.itb.misses                               0                       # DTB misses
system.cpu.itb.accesses                             0                       # DTB accesses
system.cpu.workload.numSyscalls                    16                       # Number of system calls
system.cpu.pwrStateResidencyTicks::ON    128224845000                       # Cumulative time (in ticks) in various power states
system.cpu.numCycles                        256449691                       # number of cpu cycles simulated
system.cpu.numWorkItemsStarted                      0                       # number of work items this cpu started
system.cpu.numWorkItemsCompleted                    0                       # number of work items this cpu completed
system.cpu.fetch.icacheStallCycles            4384170                       # Number of cycles fetch is stalled on an Icache miss
system.cpu.fetch.Insts                      504362851                       # Number of instructions fetch has processed
system.cpu.fetch.Branches                    67621850                       # Number of branches that fetch encountered
system.cpu.fetch.predictedBranches           50906034                       # Number of branches that fetch has predicted taken
system.cpu.fetch.Cycles                     247495761                       # Number of cycles fetch has run and was not squashing or blocked
system.cpu.fetch.SquashCycles                 8895814                       # Number of cycles fetch has spent squashing
system.cpu.fetch.MiscStallCycles                  704                       # Number of cycles fetch has spent waiting on interrupts, or bad addresses, or out of MSHRs
system.cpu.fetch.PendingTrapStallCycles           345                       # Number of stall cycles due to pending traps
system.cpu.fetch.IcacheWaitRetryStallCycles         1408                       # Number of stall cycles due to full MSHR
system.cpu.fetch.CacheLines                 155604476                       # Number of cache lines fetched
system.cpu.fetch.IcacheSquashes                  1284                       # Number of outstanding Icache misses that were squashed
system.cpu.fetch.rateDist::samples          256330295                       # Number of instructions fetched each cycle (Total)
system.cpu.fetch.rateDist::mean              2.095795                       # Number of instructions fetched each cycle (Total)
system.cpu.fetch.rateDist::stdev             1.036211                       # Number of instructions fetched each cycle (Total)
system.cpu.fetch.rateDist::underflows               0      0.00%      0.00% # Number of instructions fetched each cycle (Total)
system.cpu.fetch.rateDist::0                 12036000      4.70%      4.70% # Number of instructions fetched each cycle (Total)
system.cpu.fetch.rateDist::1                 90405840     35.27%     39.96% # Number of instructions fetched each cycle (Total)
system.cpu.fetch.rateDist::2                 14855486      5.80%     45.76% # Number of instructions fetched each cycle (Total)
system.cpu.fetch.rateDist::3                139032969     54.24%    100.00% # Number of instructions fetched each cycle (Total)
system.cpu.fetch.rateDist::overflows                0      0.00%    100.00% # Number of instructions fetched each cycle (Total)
system.cpu.fetch.rateDist::min_value                0                       # Number of instructions fetched each cycle (Total)
system.cpu.fetch.rateDist::max_value                3                       # Number of instructions fetched each cycle (Total)
system.cpu.fetch.rateDist::total            256330295                       # Number of instructions fetched each cycle (Total)
system.cpu.fetch.branchRate                  0.263685                       # Number of branch fetches per cycle
system.cpu.fetch.rate                        1.966713                       # Number of inst fetches per cycle
system.cpu.decode.IdleCycles                 11444846                       # Number of cycles decode is idle
system.cpu.decode.BlockedCycles              10236286                       # Number of cycles decode is blocked
system.cpu.decode.RunCycles                 226606009                       # Number of cycles decode is running
system.cpu.decode.UnblockCycles               3667908                       # Number of cycles decode is unblocking
system.cpu.decode.SquashCycles                4375246                       # Number of cycles decode is squashing
system.cpu.decode.BranchResolved             43108959                       # Number of times decode resolved a branch
system.cpu.decode.BranchMispred                 74390                       # Number of times decode detected a branch misprediction
system.cpu.decode.DecodedInsts              504268181                       # Number of instructions handled by decode
system.cpu.decode.SquashedInsts              17731531                       # Number of squashed instructions handled by decode
system.cpu.rename.SquashCycles                4375246                       # Number of cycles rename is squashing
system.cpu.rename.IdleCycles                 26240103                       # Number of cycles rename is idle
system.cpu.rename.BlockCycles                 4042244                       # Number of cycles rename is blocking
system.cpu.rename.serializeStallCycles        2461725                       # count of cycles rename stalled for serializing inst
system.cpu.rename.RunCycles                 215472448                       # Number of cycles rename is running
system.cpu.rename.UnblockCycles               3738529                       # Number of cycles rename is unblocking
system.cpu.rename.RenamedInsts              484907393                       # Number of instructions processed by rename
system.cpu.rename.SquashedInsts               8940966                       # Number of squashed instructions processed by rename
system.cpu.rename.ROBFullEvents                 40040                       # Number of times rename has blocked due to ROB full
system.cpu.rename.IQFullEvents                2135742                       # Number of times rename has blocked due to IQ full
system.cpu.rename.LQFullEvents                    650                       # Number of times rename has blocked due to LQ full
system.cpu.rename.SQFullEvents                  40769                       # Number of times rename has blocked due to SQ full
system.cpu.rename.RenamedOperands           673124407                       # Number of destination operands rename has renamed
system.cpu.rename.RenameLookups            2413655429                       # Number of register rename lookups that rename has made
system.cpu.rename.int_rename_lookups        799888365                       # Number of integer rename lookups
system.cpu.rename.fp_rename_lookups                16                       # Number of floating rename lookups
system.cpu.rename.CommittedMaps             576946516                       # Number of HB maps that are committed
system.cpu.rename.UndoneMaps                 96177891                       # Number of HB maps that are undone due to squashing
system.cpu.rename.serializingInsts             216847                       # count of serializing insts renamed
system.cpu.rename.tempSerializingInsts          93076                       # count of temporary serializing insts renamed
system.cpu.rename.skidInsts                   6285916                       # count of insts added to the skid buffer
system.cpu.memDep0.insertedLoads             43418179                       # Number of loads inserted to the mem dependence unit.
system.cpu.memDep0.insertedStores            39623750                       # Number of stores inserted to the mem dependence unit.
system.cpu.memDep0.conflictingLoads            271155                       # Number of conflicting loads.
system.cpu.memDep0.conflictingStores            12328                       # Number of conflicting stores.
system.cpu.iq.iqInstsAdded                  476378485                       # Number of instructions added to the IQ (excludes non-spec)
system.cpu.iq.iqNonSpecInstsAdded               93659                       # Number of non-speculative instructions added to the IQ
system.cpu.iq.iqInstsIssued                 441531623                       # Number of instructions issued
system.cpu.iq.iqSquashedInstsIssued           3695314                       # Number of squashed instructions issued
system.cpu.iq.iqSquashedInstsExamined        57412849                       # Number of squashed instructions iterated over during squash; mainly for profiling
system.cpu.iq.iqSquashedOperandsExamined    175286500                       # Number of squashed operands that are examined and possibly removed from graph
system.cpu.iq.iqSquashedNonSpecRemoved          61551                       # Number of squashed non-spec instructions that were removed
system.cpu.iq.issued_per_cycle::samples     256330295                       # Number of insts issued each cycle
system.cpu.iq.issued_per_cycle::mean         1.722510                       # Number of insts issued each cycle
system.cpu.iq.issued_per_cycle::stdev        0.963241                       # Number of insts issued each cycle
system.cpu.iq.issued_per_cycle::underflows            0      0.00%      0.00% # Number of insts issued each cycle
system.cpu.iq.issued_per_cycle::0            42599099     16.62%     16.62% # Number of insts issued each cycle
system.cpu.iq.issued_per_cycle::1            36109149     14.09%     30.71% # Number of insts issued each cycle
system.cpu.iq.issued_per_cycle::2           127886436     49.89%     80.60% # Number of insts issued each cycle
system.cpu.iq.issued_per_cycle::3            49292843     19.23%     99.83% # Number of insts issued each cycle
system.cpu.iq.issued_per_cycle::4              442767      0.17%    100.00% # Number of insts issued each cycle
system.cpu.iq.issued_per_cycle::5                   1      0.00%    100.00% # Number of insts issued each cycle
system.cpu.iq.issued_per_cycle::6                   0      0.00%    100.00% # Number of insts issued each cycle
system.cpu.iq.issued_per_cycle::7                   0      0.00%    100.00% # Number of insts issued each cycle
system.cpu.iq.issued_per_cycle::8                   0      0.00%    100.00% # Number of insts issued each cycle
system.cpu.iq.issued_per_cycle::overflows            0      0.00%    100.00% # Number of insts issued each cycle
system.cpu.iq.issued_per_cycle::min_value            0                       # Number of insts issued each cycle
system.cpu.iq.issued_per_cycle::max_value            5                       # Number of insts issued each cycle
system.cpu.iq.issued_per_cycle::total       256330295                       # Number of insts issued each cycle
system.cpu.iq.fu_full::No_OpClass                   0      0.00%      0.00% # attempts to use FU when none available
system.cpu.iq.fu_full::IntAlu                66441278     84.27%     84.27% # attempts to use FU when none available
system.cpu.iq.fu_full::IntMult                     21      0.00%     84.27% # attempts to use FU when none available
system.cpu.iq.fu_full::IntDiv                       0      0.00%     84.27% # attempts to use FU when none available
system.cpu.iq.fu_full::FloatAdd                     0      0.00%     84.27% # attempts to use FU when none available
system.cpu.iq.fu_full::FloatCmp                     0      0.00%     84.27% # attempts to use FU when none available
system.cpu.iq.fu_full::FloatCvt                     0      0.00%     84.27% # attempts to use FU when none available
system.cpu.iq.fu_full::FloatMult                    0      0.00%     84.27% # attempts to use FU when none available
system.cpu.iq.fu_full::FloatMultAcc                 0      0.00%     84.27% # attempts to use FU when none available
system.cpu.iq.fu_full::FloatDiv                     0      0.00%     84.27% # attempts to use FU when none available
system.cpu.iq.fu_full::FloatMisc                    0      0.00%     84.27% # attempts to use FU when none available
system.cpu.iq.fu_full::FloatSqrt                    0      0.00%     84.27% # attempts to use FU when none available
system.cpu.iq.fu_full::SimdAdd                      0      0.00%     84.27% # attempts to use FU when none available
system.cpu.iq.fu_full::SimdAddAcc                   0      0.00%     84.27% # attempts to use FU when none available
system.cpu.iq.fu_full::SimdAlu                      0      0.00%     84.27% # attempts to use FU when none available
system.cpu.iq.fu_full::SimdCmp                      0      0.00%     84.27% # attempts to use FU when none available
system.cpu.iq.fu_full::SimdCvt                      0      0.00%     84.27% # attempts to use FU when none available
system.cpu.iq.fu_full::SimdMisc                     0      0.00%     84.27% # attempts to use FU when none available
system.cpu.iq.fu_full::SimdMult                     0      0.00%     84.27% # attempts to use FU when none available
system.cpu.iq.fu_full::SimdMultAcc                  0      0.00%     84.27% # attempts to use FU when none available
system.cpu.iq.fu_full::SimdShift                    0      0.00%     84.27% # attempts to use FU when none available
system.cpu.iq.fu_full::SimdShiftAcc                 0      0.00%     84.27% # attempts to use FU when none available
system.cpu.iq.fu_full::SimdSqrt                     0      0.00%     84.27% # attempts to use FU when none available
system.cpu.iq.fu_full::SimdFloatAdd                 0      0.00%     84.27% # attempts to use FU when none available
system.cpu.iq.fu_full::SimdFloatAlu                 0      0.00%     84.27% # attempts to use FU when none available
system.cpu.iq.fu_full::SimdFloatCmp                 0      0.00%     84.27% # attempts to use FU when none available
system.cpu.iq.fu_full::SimdFloatCvt                 0      0.00%     84.27% # attempts to use FU when none available
system.cpu.iq.fu_full::SimdFloatDiv                 0      0.00%     84.27% # attempts to use FU when none available
system.cpu.iq.fu_full::SimdFloatMisc                0      0.00%     84.27% # attempts to use FU when none available
system.cpu.iq.fu_full::SimdFloatMult                0      0.00%     84.27% # attempts to use FU when none available
system.cpu.iq.fu_full::SimdFloatMultAcc             0      0.00%     84.27% # attempts to use FU when none available
system.cpu.iq.fu_full::SimdFloatSqrt                0      0.00%     84.27% # attempts to use FU when none available
system.cpu.iq.fu_full::MemRead                5370373      6.81%     91.08% # attempts to use FU when none available
system.cpu.iq.fu_full::MemWrite               7028903      8.92%    100.00% # attempts to use FU when none available
system.cpu.iq.fu_full::FloatMemRead                 0      0.00%    100.00% # attempts to use FU when none available
system.cpu.iq.fu_full::FloatMemWrite               14      0.00%    100.00% # attempts to use FU when none available
system.cpu.iq.fu_full::IprAccess                    0      0.00%    100.00% # attempts to use FU when none available
system.cpu.iq.fu_full::InstPrefetch                 0      0.00%    100.00% # attempts to use FU when none available
system.cpu.iq.FU_type_0::No_OpClass                 0      0.00%      0.00% # Type of FU issued
system.cpu.iq.FU_type_0::IntAlu             361804528     81.94%     81.94% # Type of FU issued
system.cpu.iq.FU_type_0::IntMult              1602159      0.36%     82.31% # Type of FU issued
system.cpu.iq.FU_type_0::IntDiv                     0      0.00%     82.31% # Type of FU issued
system.cpu.iq.FU_type_0::FloatAdd                   0      0.00%     82.31% # Type of FU issued
system.cpu.iq.FU_type_0::FloatCmp                   0      0.00%     82.31% # Type of FU issued
system.cpu.iq.FU_type_0::FloatCvt                   0      0.00%     82.31% # Type of FU issued
system.cpu.iq.FU_type_0::FloatMult                  0      0.00%     82.31% # Type of FU issued
system.cpu.iq.FU_type_0::FloatMultAcc               0      0.00%     82.31% # Type of FU issued
system.cpu.iq.FU_type_0::FloatDiv                   0      0.00%     82.31% # Type of FU issued
system.cpu.iq.FU_type_0::FloatMisc                  0      0.00%     82.31% # Type of FU issued
system.cpu.iq.FU_type_0::FloatSqrt                  0      0.00%     82.31% # Type of FU issued
system.cpu.iq.FU_type_0::SimdAdd                    0      0.00%     82.31% # Type of FU issued
system.cpu.iq.FU_type_0::SimdAddAcc                 0      0.00%     82.31% # Type of FU issued
system.cpu.iq.FU_type_0::SimdAlu                    0      0.00%     82.31% # Type of FU issued
system.cpu.iq.FU_type_0::SimdCmp                    0      0.00%     82.31% # Type of FU issued
system.cpu.iq.FU_type_0::SimdCvt                    0      0.00%     82.31% # Type of FU issued
system.cpu.iq.FU_type_0::SimdMisc                   0      0.00%     82.31% # Type of FU issued
system.cpu.iq.FU_type_0::SimdMult                   0      0.00%     82.31% # Type of FU issued
system.cpu.iq.FU_type_0::SimdMultAcc                0      0.00%     82.31% # Type of FU issued
system.cpu.iq.FU_type_0::SimdShift                  0      0.00%     82.31% # Type of FU issued
system.cpu.iq.FU_type_0::SimdShiftAcc               0      0.00%     82.31% # Type of FU issued
system.cpu.iq.FU_type_0::SimdSqrt                   0      0.00%     82.31% # Type of FU issued
system.cpu.iq.FU_type_0::SimdFloatAdd               0      0.00%     82.31% # Type of FU issued
system.cpu.iq.FU_type_0::SimdFloatAlu               0      0.00%     82.31% # Type of FU issued
system.cpu.iq.FU_type_0::SimdFloatCmp               0      0.00%     82.31% # Type of FU issued
system.cpu.iq.FU_type_0::SimdFloatCvt               0      0.00%     82.31% # Type of FU issued
system.cpu.iq.FU_type_0::SimdFloatDiv               0      0.00%     82.31% # Type of FU issued
system.cpu.iq.FU_type_0::SimdFloatMisc         154681      0.04%     82.34% # Type of FU issued
system.cpu.iq.FU_type_0::SimdFloatMult              0      0.00%     82.34% # Type of FU issued
system.cpu.iq.FU_type_0::SimdFloatMultAcc            0      0.00%     82.34% # Type of FU issued
system.cpu.iq.FU_type_0::SimdFloatSqrt              0      0.00%     82.34% # Type of FU issued
system.cpu.iq.FU_type_0::MemRead             39644910      8.98%     91.32% # Type of FU issued
system.cpu.iq.FU_type_0::MemWrite            38325329      8.68%    100.00% # Type of FU issued
system.cpu.iq.FU_type_0::FloatMemRead               0      0.00%    100.00% # Type of FU issued
system.cpu.iq.FU_type_0::FloatMemWrite             16      0.00%    100.00% # Type of FU issued
system.cpu.iq.FU_type_0::IprAccess                  0      0.00%    100.00% # Type of FU issued
system.cpu.iq.FU_type_0::InstPrefetch               0      0.00%    100.00% # Type of FU issued
system.cpu.iq.FU_type_0::total              441531623                       # Type of FU issued
system.cpu.iq.rate                           1.721709                       # Inst issue rate
system.cpu.iq.fu_busy_cnt                    78840589                       # FU busy when requested
system.cpu.iq.fu_busy_rate                   0.178562                       # FU busy rate (busy events/executed inst)
system.cpu.iq.int_inst_queue_reads         1221929398                       # Number of integer instruction queue reads
system.cpu.iq.int_inst_queue_writes         533885836                       # Number of integer instruction queue writes
system.cpu.iq.int_inst_queue_wakeup_accesses    434855617                       # Number of integer instruction queue wakeup accesses
system.cpu.iq.fp_inst_queue_reads                  46                       # Number of floating instruction queue reads
system.cpu.iq.fp_inst_queue_writes                 16                       # Number of floating instruction queue writes
system.cpu.iq.fp_inst_queue_wakeup_accesses           16                       # Number of floating instruction queue wakeup accesses
system.cpu.iq.int_alu_accesses              520372182                       # Number of integer alu accesses
system.cpu.iq.fp_alu_accesses                      30                       # Number of floating point alu accesses
system.cpu.iew.lsq.thread0.forwLoads           305617                       # Number of loads that had data forwarded from stores
system.cpu.iew.lsq.thread0.invAddrLoads             0                       # Number of loads ignored due to an invalid address
system.cpu.iew.lsq.thread0.squashedLoads      6229517                       # Number of loads squashed
system.cpu.iew.lsq.thread0.ignoredResponses         2056                       # Number of memory responses ignored because the instruction is squashed
system.cpu.iew.lsq.thread0.memOrderViolation          860                       # Number of memory ordering violations
system.cpu.iew.lsq.thread0.squashedStores      1921616                       # Number of stores squashed
system.cpu.iew.lsq.thread0.invAddrSwpfs             0                       # Number of software prefetches ignored due to an invalid address
system.cpu.iew.lsq.thread0.blockedLoads             0                       # Number of blocked loads due to partial load-store forwarding
system.cpu.iew.lsq.thread0.rescheduledLoads        26336                       # Number of loads that were rescheduled
system.cpu.iew.lsq.thread0.cacheBlocked          2081                       # Number of times an access to memory failed due to the cache being blocked
system.cpu.iew.iewIdleCycles                        0                       # Number of cycles IEW is idle
system.cpu.iew.iewSquashCycles                4375246                       # Number of cycles IEW is squashing
system.cpu.iew.iewBlockCycles                 3936951                       # Number of cycles IEW is blocking
system.cpu.iew.iewUnblockCycles                   312                       # Number of cycles IEW is unblocking
system.cpu.iew.iewDispatchedInsts           476472161                       # Number of instructions dispatched to IQ
system.cpu.iew.iewDispSquashedInsts                 0                       # Number of squashed instructions skipped by dispatch
system.cpu.iew.iewDispLoadInsts              43418179                       # Number of dispatched load instructions
system.cpu.iew.iewDispStoreInsts             39623750                       # Number of dispatched store instructions
system.cpu.iew.iewDispNonSpecInsts              93075                       # Number of dispatched non-speculative instructions
system.cpu.iew.iewIQFullEvents                     61                       # Number of times the IQ has become full, causing a stall
system.cpu.iew.iewLSQFullEvents                    59                       # Number of times the LSQ has become full, causing a stall
system.cpu.iew.memOrderViolationEvents            860                       # Number of memory order violations
system.cpu.iew.predictedTakenIncorrect        2328599                       # Number of branches that were predicted taken incorrectly
system.cpu.iew.predictedNotTakenIncorrect      2119327                       # Number of branches that were predicted not taken incorrectly
system.cpu.iew.branchMispredicts              4447926                       # Number of branch mispredicts detected at execute
system.cpu.iew.iewExecutedInsts             435338514                       # Number of executed instructions
system.cpu.iew.iewExecLoadInsts              38405246                       # Number of load instructions executed
system.cpu.iew.iewExecSquashedInsts           6193109                       # Number of squashed instructions skipped in execute
system.cpu.iew.exec_swp                             0                       # number of swp insts executed
system.cpu.iew.exec_nop                            17                       # number of nop insts executed
system.cpu.iew.exec_refs                     76510877                       # number of memory reference insts executed
system.cpu.iew.exec_branches                 50907711                       # Number of branches executed
system.cpu.iew.exec_stores                   38105631                       # Number of stores executed
system.cpu.iew.exec_rate                     1.697559                       # Inst execution rate
system.cpu.iew.wb_sent                      434874006                       # cumulative count of insts sent to commit
system.cpu.iew.wb_count                     434855633                       # cumulative count of insts written-back
system.cpu.iew.wb_producers                 317913658                       # num instructions producing a value
system.cpu.iew.wb_consumers                 766282955                       # num instructions consuming a value
system.cpu.iew.wb_rate                       1.695676                       # insts written-back per cycle
system.cpu.iew.wb_fanout                     0.414878                       # average fanout of values written-back
system.cpu.commit.commitSquashedInsts        48099409                       # The number of squashed insts skipped by commit
system.cpu.commit.commitNonSpecStalls           32108                       # The number of times commit has been forced to stall to communicate backwards
system.cpu.commit.branchMispredicts           4343478                       # The number of times a branch was mispredicted
system.cpu.commit.committed_per_cycle::samples    248020489                       # Number of insts commited each cycle
system.cpu.commit.committed_per_cycle::mean     1.689616                       # Number of insts commited each cycle
system.cpu.commit.committed_per_cycle::stdev     1.981108                       # Number of insts commited each cycle
system.cpu.commit.committed_per_cycle::underflows            0      0.00%      0.00% # Number of insts commited each cycle
system.cpu.commit.committed_per_cycle::0     78644732     31.71%     31.71% # Number of insts commited each cycle
system.cpu.commit.committed_per_cycle::1     64435872     25.98%     57.69% # Number of insts commited each cycle
system.cpu.commit.committed_per_cycle::2     62038552     25.01%     82.70% # Number of insts commited each cycle
system.cpu.commit.committed_per_cycle::3      8595615      3.47%     86.17% # Number of insts commited each cycle
system.cpu.commit.committed_per_cycle::4      3152983      1.27%     87.44% # Number of insts commited each cycle
system.cpu.commit.committed_per_cycle::5     16969988      6.84%     94.28% # Number of insts commited each cycle
system.cpu.commit.committed_per_cycle::6       799297      0.32%     94.60% # Number of insts commited each cycle
system.cpu.commit.committed_per_cycle::7      4565781      1.84%     96.44% # Number of insts commited each cycle
system.cpu.commit.committed_per_cycle::8      8817669      3.56%    100.00% # Number of insts commited each cycle
system.cpu.commit.committed_per_cycle::overflows            0      0.00%    100.00% # Number of insts commited each cycle
system.cpu.commit.committed_per_cycle::min_value            0                       # Number of insts commited each cycle
system.cpu.commit.committed_per_cycle::max_value            8                       # Number of insts commited each cycle
system.cpu.commit.committed_per_cycle::total    248020489                       # Number of insts commited each cycle
system.cpu.commit.committedInsts            402752346                       # Number of instructions committed
system.cpu.commit.committedOps              419059294                       # Number of ops (including micro ops) committed
system.cpu.commit.swp_count                         0                       # Number of s/w prefetches committed
system.cpu.commit.refs                       74890796                       # Number of memory references committed
system.cpu.commit.loads                      37188662                       # Number of loads committed
system.cpu.commit.membars                         584                       # Number of memory barriers committed
system.cpu.commit.branches                   48961033                       # Number of branches committed
system.cpu.commit.vec_insts                         0                       # Number of committed Vector instructions.
system.cpu.commit.fp_insts                         16                       # Number of committed floating point instructions.
system.cpu.commit.int_insts                 376724609                       # Number of committed integer instructions.
system.cpu.commit.function_calls              3239996                       # Number of function calls committed.
system.cpu.commit.op_class_0::No_OpClass            0      0.00%      0.00% # Class of committed instruction
system.cpu.commit.op_class_0::IntAlu        342416928     81.71%     81.71% # Class of committed instruction
system.cpu.commit.op_class_0::IntMult         1596889      0.38%     82.09% # Class of committed instruction
system.cpu.commit.op_class_0::IntDiv                0      0.00%     82.09% # Class of committed instruction
system.cpu.commit.op_class_0::FloatAdd              0      0.00%     82.09% # Class of committed instruction
system.cpu.commit.op_class_0::FloatCmp              0      0.00%     82.09% # Class of committed instruction
system.cpu.commit.op_class_0::FloatCvt              0      0.00%     82.09% # Class of committed instruction
system.cpu.commit.op_class_0::FloatMult             0      0.00%     82.09% # Class of committed instruction
system.cpu.commit.op_class_0::FloatMultAcc            0      0.00%     82.09% # Class of committed instruction
system.cpu.commit.op_class_0::FloatDiv              0      0.00%     82.09% # Class of committed instruction
system.cpu.commit.op_class_0::FloatMisc             0      0.00%     82.09% # Class of committed instruction
system.cpu.commit.op_class_0::FloatSqrt             0      0.00%     82.09% # Class of committed instruction
system.cpu.commit.op_class_0::SimdAdd               0      0.00%     82.09% # Class of committed instruction
system.cpu.commit.op_class_0::SimdAddAcc            0      0.00%     82.09% # Class of committed instruction
system.cpu.commit.op_class_0::SimdAlu               0      0.00%     82.09% # Class of committed instruction
system.cpu.commit.op_class_0::SimdCmp               0      0.00%     82.09% # Class of committed instruction
system.cpu.commit.op_class_0::SimdCvt               0      0.00%     82.09% # Class of committed instruction
system.cpu.commit.op_class_0::SimdMisc              0      0.00%     82.09% # Class of committed instruction
system.cpu.commit.op_class_0::SimdMult              0      0.00%     82.09% # Class of committed instruction
system.cpu.commit.op_class_0::SimdMultAcc            0      0.00%     82.09% # Class of committed instruction
system.cpu.commit.op_class_0::SimdShift             0      0.00%     82.09% # Class of committed instruction
system.cpu.commit.op_class_0::SimdShiftAcc            0      0.00%     82.09% # Class of committed instruction
system.cpu.commit.op_class_0::SimdSqrt              0      0.00%     82.09% # Class of committed instruction
system.cpu.commit.op_class_0::SimdFloatAdd            0      0.00%     82.09% # Class of committed instruction
system.cpu.commit.op_class_0::SimdFloatAlu            0      0.00%     82.09% # Class of committed instruction
system.cpu.commit.op_class_0::SimdFloatCmp            0      0.00%     82.09% # Class of committed instruction
system.cpu.commit.op_class_0::SimdFloatCvt            0      0.00%     82.09% # Class of committed instruction
system.cpu.commit.op_class_0::SimdFloatDiv            0      0.00%     82.09% # Class of committed instruction
system.cpu.commit.op_class_0::SimdFloatMisc       154681      0.04%     82.13% # Class of committed instruction
system.cpu.commit.op_class_0::SimdFloatMult            0      0.00%     82.13% # Class of committed instruction
system.cpu.commit.op_class_0::SimdFloatMultAcc            0      0.00%     82.13% # Class of committed instruction
system.cpu.commit.op_class_0::SimdFloatSqrt            0      0.00%     82.13% # Class of committed instruction
system.cpu.commit.op_class_0::MemRead        37188662      8.87%     91.00% # Class of committed instruction
[...]
system.l2.demand_miss_rate::cpu.data         0.095794                       # miss rate for demand accesses
system.l2.demand_miss_rate::total            0.182363                       # miss rate for demand accesses
system.l2.overall_miss_rate::cpu.inst        0.445140                       # miss rate for overall accesses
system.l2.overall_miss_rate::cpu.data        0.095794                       # miss rate for overall accesses
system.l2.overall_miss_rate::total           0.182363                       # miss rate for overall accesses
system.l2.ReadExReq_avg_miss_latency::cpu.data 108221.311475                       # average ReadExReq miss latency
system.l2.ReadExReq_avg_miss_latency::total 108221.311475                       # average ReadExReq miss latency
system.l2.ReadCleanReq_avg_miss_latency::cpu.inst 105579.662605                       # average ReadCleanReq miss latency
system.l2.ReadCleanReq_avg_miss_latency::total 105579.662605                       # average ReadCleanReq miss latency
system.l2.ReadSharedReq_avg_miss_latency::cpu.data 190348.695652                       # average ReadSharedReq miss latency
system.l2.ReadSharedReq_avg_miss_latency::total 190348.695652                       # average ReadSharedReq miss latency
system.l2.demand_avg_miss_latency::cpu.inst 105579.662605                       # average overall miss latency
system.l2.demand_avg_miss_latency::cpu.data 175973.457676                       # average overall miss latency
system.l2.demand_avg_miss_latency::total 133393.990930                       # average overall miss latency
system.l2.overall_avg_miss_latency::cpu.inst 105579.662605                       # average overall miss latency
system.l2.overall_avg_miss_latency::cpu.data 175973.457676                       # average overall miss latency
system.l2.overall_avg_miss_latency::total 133393.990930                       # average overall miss latency
system.l2.blocked_cycles::no_mshrs                  0                       # number of cycles access was blocked
system.l2.blocked_cycles::no_targets                0                       # number of cycles access was blocked
system.l2.blocked::no_mshrs                         0                       # number of cycles access was blocked
system.l2.blocked::no_targets                       0                       # number of cycles access was blocked
system.l2.avg_blocked_cycles::no_mshrs            nan                       # average number of cycles each access was blocked
system.l2.avg_blocked_cycles::no_targets          nan                       # average number of cycles each access was blocked
system.l2.ReadExReq_mshr_hits::cpu.data            29                       # number of ReadExReq MSHR hits
system.l2.ReadExReq_mshr_hits::total               29                       # number of ReadExReq MSHR hits
system.l2.ReadCleanReq_mshr_hits::cpu.inst            1                       # number of ReadCleanReq MSHR hits
system.l2.ReadCleanReq_mshr_hits::total             1                       # number of ReadCleanReq MSHR hits
system.l2.ReadSharedReq_mshr_hits::cpu.data            9                       # number of ReadSharedReq MSHR hits
system.l2.ReadSharedReq_mshr_hits::total            9                       # number of ReadSharedReq MSHR hits
system.l2.demand_mshr_hits::cpu.inst                1                       # number of demand (read+write) MSHR hits
system.l2.demand_mshr_hits::cpu.data               38                       # number of demand (read+write) MSHR hits
system.l2.demand_mshr_hits::total                  39                       # number of demand (read+write) MSHR hits
system.l2.overall_mshr_hits::cpu.inst               1                       # number of overall MSHR hits
system.l2.overall_mshr_hits::cpu.data              38                       # number of overall MSHR hits
system.l2.overall_mshr_hits::total                 39                       # number of overall MSHR hits
system.l2.HardPFReq_mshr_misses::l2.prefetcher         3145                       # number of HardPFReq MSHR misses
system.l2.HardPFReq_mshr_misses::total           3145                       # number of HardPFReq MSHR misses
system.l2.ReadExReq_mshr_misses::cpu.data           93                       # number of ReadExReq MSHR misses
system.l2.ReadExReq_mshr_misses::total             93                       # number of ReadExReq MSHR misses
system.l2.ReadCleanReq_mshr_misses::cpu.inst         1066                       # number of ReadCleanReq MSHR misses
system.l2.ReadCleanReq_mshr_misses::total         1066                       # number of ReadCleanReq MSHR misses
system.l2.ReadSharedReq_mshr_misses::cpu.data          566                       # number of ReadSharedReq MSHR misses
system.l2.ReadSharedReq_mshr_misses::total          566                       # number of ReadSharedReq MSHR misses
system.l2.demand_mshr_misses::cpu.inst           1066                       # number of demand (read+write) MSHR misses
system.l2.demand_mshr_misses::cpu.data            659                       # number of demand (read+write) MSHR misses
system.l2.demand_mshr_misses::total              1725                       # number of demand (read+write) MSHR misses
system.l2.overall_mshr_misses::cpu.inst          1066                       # number of overall MSHR misses
system.l2.overall_mshr_misses::cpu.data           659                       # number of overall MSHR misses
system.l2.overall_mshr_misses::l2.prefetcher         3145                       # number of overall MSHR misses
system.l2.overall_mshr_misses::total             4870                       # number of overall MSHR misses
system.l2.HardPFReq_mshr_miss_latency::l2.prefetcher     94872880                       # number of HardPFReq MSHR miss cycles
system.l2.HardPFReq_mshr_miss_latency::total     94872880                       # number of HardPFReq MSHR miss cycles
system.l2.ReadExReq_mshr_miss_latency::cpu.data     11672500                       # number of ReadExReq MSHR miss cycles
system.l2.ReadExReq_mshr_miss_latency::total     11672500                       # number of ReadExReq MSHR miss cycles
system.l2.ReadCleanReq_mshr_miss_latency::cpu.inst    106198000                       # number of ReadCleanReq MSHR miss cycles
system.l2.ReadCleanReq_mshr_miss_latency::total    106198000                       # number of ReadCleanReq MSHR miss cycles
system.l2.ReadSharedReq_mshr_miss_latency::cpu.data    105490500                       # number of ReadSharedReq MSHR miss cycles
system.l2.ReadSharedReq_mshr_miss_latency::total    105490500                       # number of ReadSharedReq MSHR miss cycles
system.l2.demand_mshr_miss_latency::cpu.inst    106198000                       # number of demand (read+write) MSHR miss cycles
system.l2.demand_mshr_miss_latency::cpu.data    117163000                       # number of demand (read+write) MSHR miss cycles
system.l2.demand_mshr_miss_latency::total    223361000                       # number of demand (read+write) MSHR miss cycles
system.l2.overall_mshr_miss_latency::cpu.inst    106198000                       # number of overall MSHR miss cycles
system.l2.overall_mshr_miss_latency::cpu.data    117163000                       # number of overall MSHR miss cycles
system.l2.overall_mshr_miss_latency::l2.prefetcher     94872880                       # number of overall MSHR miss cycles
system.l2.overall_mshr_miss_latency::total    318233880                       # number of overall MSHR miss cycles
system.l2.HardPFReq_mshr_miss_rate::l2.prefetcher          inf                       # mshr miss rate for HardPFReq accesses
system.l2.HardPFReq_mshr_miss_rate::total          inf                       # mshr miss rate for HardPFReq accesses
system.l2.ReadExReq_mshr_miss_rate::cpu.data     0.024564                       # mshr miss rate for ReadExReq accesses
system.l2.ReadExReq_mshr_miss_rate::total     0.024564                       # mshr miss rate for ReadExReq accesses
system.l2.ReadCleanReq_mshr_miss_rate::cpu.inst     0.444723                       # mshr miss rate for ReadCleanReq accesses
system.l2.ReadCleanReq_mshr_miss_rate::total     0.444723                       # mshr miss rate for ReadCleanReq accesses
system.l2.ReadSharedReq_mshr_miss_rate::cpu.data     0.162178                       # mshr miss rate for ReadSharedReq accesses
system.l2.ReadSharedReq_mshr_miss_rate::total     0.162178                       # mshr miss rate for ReadSharedReq accesses
system.l2.demand_mshr_miss_rate::cpu.inst     0.444723                       # mshr miss rate for demand accesses
system.l2.demand_mshr_miss_rate::cpu.data     0.090572                       # mshr miss rate for demand accesses
system.l2.demand_mshr_miss_rate::total       0.178331                       # mshr miss rate for demand accesses
system.l2.overall_mshr_miss_rate::cpu.inst     0.444723                       # mshr miss rate for overall accesses
system.l2.overall_mshr_miss_rate::cpu.data     0.090572                       # mshr miss rate for overall accesses
system.l2.overall_mshr_miss_rate::l2.prefetcher          inf                       # mshr miss rate for overall accesses
system.l2.overall_mshr_miss_rate::total      0.503463                       # mshr miss rate for overall accesses
system.l2.HardPFReq_avg_mshr_miss_latency::l2.prefetcher 30166.257552                       # average HardPFReq mshr miss latency
system.l2.HardPFReq_avg_mshr_miss_latency::total 30166.257552                       # average HardPFReq mshr miss latency
system.l2.ReadExReq_avg_mshr_miss_latency::cpu.data 125510.752688                       # average ReadExReq mshr miss latency
system.l2.ReadExReq_avg_mshr_miss_latency::total 125510.752688                       # average ReadExReq mshr miss latency
system.l2.ReadCleanReq_avg_mshr_miss_latency::cpu.inst 99622.889306                       # average ReadCleanReq mshr miss latency
system.l2.ReadCleanReq_avg_mshr_miss_latency::total 99622.889306                       # average ReadCleanReq mshr miss latency
system.l2.ReadSharedReq_avg_mshr_miss_latency::cpu.data 186378.975265                       # average ReadSharedReq mshr miss latency
system.l2.ReadSharedReq_avg_mshr_miss_latency::total 186378.975265                       # average ReadSharedReq mshr miss latency
system.l2.demand_avg_mshr_miss_latency::cpu.inst 99622.889306                       # average overall mshr miss latency
system.l2.demand_avg_mshr_miss_latency::cpu.data 177789.074355                       # average overall mshr miss latency
system.l2.demand_avg_mshr_miss_latency::total 129484.637681                       # average overall mshr miss latency
system.l2.overall_avg_mshr_miss_latency::cpu.inst 99622.889306                       # average overall mshr miss latency
system.l2.overall_avg_mshr_miss_latency::cpu.data 177789.074355                       # average overall mshr miss latency
system.l2.overall_avg_mshr_miss_latency::l2.prefetcher 30166.257552                       # average overall mshr miss latency
system.l2.overall_avg_mshr_miss_latency::total 65345.765914                       # average overall mshr miss latency
system.membus.snoop_filter.tot_requests          3259                       # Total number of requests made to the snoop filter.
system.membus.snoop_filter.hit_single_requests          444                       # Number of requests hitting in the snoop filter with a single holder of the requested data.
system.membus.snoop_filter.hit_multi_requests            0                       # Number of requests hitting in the snoop filter with multiple (>1) holders of the requested data.
system.membus.snoop_filter.tot_snoops               0                       # Total number of snoops made to the snoop filter.
system.membus.snoop_filter.hit_single_snoops            0                       # Number of snoops hitting in the snoop filter with a single holder of the requested data.
system.membus.snoop_filter.hit_multi_snoops            0                       # Number of snoops hitting in the snoop filter with multiple (>1) holders of the requested data.
system.membus.pwrStateResidencyTicks::UNDEFINED 128224845000                       # Cumulative time (in ticks) in various power states
system.membus.trans_dist::ReadResp               3166                       # Transaction distribution
system.membus.trans_dist::ReadExReq                93                       # Transaction distribution
system.membus.trans_dist::ReadExResp               93                       # Transaction distribution
system.membus.trans_dist::ReadSharedReq          3166                       # Transaction distribution
system.membus.pkt_count_system.l2.mem_side::system.mem_ctrls.port         6518                       # Packet count per connected master and slave (bytes)
system.membus.pkt_count::total                   6518                       # Packet count per connected master and slave (bytes)
system.membus.pkt_size_system.l2.mem_side::system.mem_ctrls.port       208576                       # Cumulative packet size per connected master and slave (bytes)
system.membus.pkt_size::total                  208576                       # Cumulative packet size per connected master and slave (bytes)
system.membus.snoops                                0                       # Total snoops (count)
system.membus.snoopTraffic                          0                       # Total snoop traffic (bytes)
system.membus.snoop_fanout::samples              3259                       # Request fanout histogram
system.membus.snoop_fanout::mean                    0                       # Request fanout histogram
system.membus.snoop_fanout::stdev                   0                       # Request fanout histogram
system.membus.snoop_fanout::underflows              0      0.00%      0.00% # Request fanout histogram
system.membus.snoop_fanout::0                    3259    100.00%    100.00% # Request fanout histogram
system.membus.snoop_fanout::1                       0      0.00%    100.00% # Request fanout histogram
system.membus.snoop_fanout::overflows               0      0.00%    100.00% # Request fanout histogram
system.membus.snoop_fanout::min_value               0                       # Request fanout histogram
system.membus.snoop_fanout::max_value               0                       # Request fanout histogram
system.membus.snoop_fanout::total                3259                       # Request fanout histogram
system.membus.reqLayer0.occupancy             4860657                       # Layer occupancy (ticks)
system.membus.reqLayer0.utilization               0.0                       # Layer utilization (%)
system.membus.respLayer1.occupancy           17110517                       # Layer occupancy (ticks)
system.membus.respLayer1.utilization              0.0                       # Layer utilization (%)
system.tol2bus.snoop_filter.tot_requests        17831                       # Total number of requests made to the snoop filter.
system.tol2bus.snoop_filter.hit_single_requests         8174                       # Number of requests hitting in the snoop filter with a single holder of the requested data.
system.tol2bus.snoop_filter.hit_multi_requests          438                       # Number of requests hitting in the snoop filter with multiple (>1) holders of the requested data.
system.tol2bus.snoop_filter.tot_snoops           1610                       # Total number of snoops made to the snoop filter.
system.tol2bus.snoop_filter.hit_single_snoops         1610                       # Number of snoops hitting in the snoop filter with a single holder of the requested data.
system.tol2bus.snoop_filter.hit_multi_snoops            0                       # Number of snoops hitting in the snoop filter with multiple (>1) holders of the requested data.
system.tol2bus.pwrStateResidencyTicks::UNDEFINED 128224845000                       # Cumulative time (in ticks) in various power states
system.tol2bus.trans_dist::ReadResp              5885                       # Transaction distribution
system.tol2bus.trans_dist::WritebackDirty         5160                       # Transaction distribution
system.tol2bus.trans_dist::WritebackClean         2998                       # Transaction distribution
system.tol2bus.trans_dist::HardPFReq             3380                       # Transaction distribution
system.tol2bus.trans_dist::ReadExReq             3786                       # Transaction distribution
system.tol2bus.trans_dist::ReadExResp            3786                       # Transaction distribution
system.tol2bus.trans_dist::ReadCleanReq          2397                       # Transaction distribution
system.tol2bus.trans_dist::ReadSharedReq         3490                       # Transaction distribution
system.tol2bus.pkt_count_system.cpu.icache.mem_side::system.l2.cpu_side         6698                       # Packet count per connected master and slave (bytes)
system.tol2bus.pkt_count_system.cpu.dcache.mem_side::system.l2.cpu_side        20804                       # Packet count per connected master and slave (bytes)
system.tol2bus.pkt_count::total                 27502                       # Packet count per connected master and slave (bytes)
system.tol2bus.pkt_size_system.cpu.icache.mem_side::system.l2.cpu_side       275264                       # Cumulative packet size per connected master and slave (bytes)
system.tol2bus.pkt_size_system.cpu.dcache.mem_side::system.l2.cpu_side       865792                       # Cumulative packet size per connected master and slave (bytes)
system.tol2bus.pkt_size::total                1141056                       # Cumulative packet size per connected master and slave (bytes)
system.tol2bus.snoops                            3380                       # Total snoops (count)
system.tol2bus.snoopTraffic                         0                       # Total snoop traffic (bytes)
system.tol2bus.snoop_fanout::samples            13053                       # Request fanout histogram
system.tol2bus.snoop_fanout::mean            0.158125                       # Request fanout histogram
system.tol2bus.snoop_fanout::stdev           0.364872                       # Request fanout histogram
system.tol2bus.snoop_fanout::underflows             0      0.00%      0.00% # Request fanout histogram
system.tol2bus.snoop_fanout::0                  10989     84.19%     84.19% # Request fanout histogram
system.tol2bus.snoop_fanout::1                   2064     15.81%    100.00% # Request fanout histogram
system.tol2bus.snoop_fanout::2                      0      0.00%    100.00% # Request fanout histogram
system.tol2bus.snoop_fanout::3                      0      0.00%    100.00% # Request fanout histogram
system.tol2bus.snoop_fanout::4                      0      0.00%    100.00% # Request fanout histogram
system.tol2bus.snoop_fanout::overflows              0      0.00%    100.00% # Request fanout histogram
system.tol2bus.snoop_fanout::min_value              0                       # Request fanout histogram
system.tol2bus.snoop_fanout::max_value              1                       # Request fanout histogram
system.tol2bus.snoop_fanout::total              13053                       # Request fanout histogram
system.tol2bus.reqLayer0.occupancy           17073500                       # Layer occupancy (ticks)
system.tol2bus.reqLayer0.utilization              0.0                       # Layer utilization (%)
system.tol2bus.respLayer0.occupancy           3593997                       # Layer occupancy (ticks)
system.tol2bus.respLayer0.utilization             0.0                       # Layer utilization (%)
system.tol2bus.respLayer1.occupancy          10918491                       # Layer occupancy (ticks)
system.tol2bus.respLayer1.utilization             0.0                       # Layer utilization (%)

---------- End Simulation Statistics   ----------
