
---------- Begin Simulation Statistics ----------
sim_seconds                                  0.618865                       # Number of seconds simulated
sim_ticks                                618865347000                       # Number of ticks simulated
final_tick                               5838996204000                       # Number of ticks from beginning of simulation (restored from checkpoints and never reset)
sim_freq                                 1000000000000                       # Frequency of simulated ticks
host_inst_rate                                 717122                       # Simulator instruction rate (inst/s)
host_op_rate                                  1284941                       # Simulator op (including micro ops) rate (op/s)
host_tick_rate                              962687314                       # Simulator tick rate (ticks/s)
host_mem_usage                                1783464                       # Number of bytes of host memory used
host_seconds                                   642.85                       # Real time elapsed on the host
sim_insts                                   461003226                       # Number of instructions simulated
sim_ops                                     826026505                       # Number of ops (including micro ops) simulated
system.voltage_domain.voltage                       1                       # Voltage in Volts
system.clk_domain.clock                          1000                       # Clock period in ticks
system.mem_ctrls0.pwrStateResidencyTicks::UNDEFINED 5838996204000                       # Cumulative time (in ticks) in various power states
system.mem_ctrls0.bytes_read::ruby.dir_cntrl0       369536                       # Number of bytes read from this memory
system.mem_ctrls0.bytes_read::total            369536                       # Number of bytes read from this memory
system.mem_ctrls0.bytes_written::ruby.dir_cntrl0       496704                       # Number of bytes written to this memory
system.mem_ctrls0.bytes_written::total         496704                       # Number of bytes written to this memory
system.mem_ctrls0.num_reads::ruby.dir_cntrl0         5774                       # Number of read requests responded to by this memory
system.mem_ctrls0.num_reads::total               5774                       # Number of read requests responded to by this memory
system.mem_ctrls0.num_writes::ruby.dir_cntrl0         7761                       # Number of write requests responded to by this memory
system.mem_ctrls0.num_writes::total              7761                       # Number of write requests responded to by this memory
system.mem_ctrls0.bw_read::ruby.dir_cntrl0       597119                       # Total read bandwidth from this memory (bytes/s)
system.mem_ctrls0.bw_read::total               597119                       # Total read bandwidth from this memory (bytes/s)
system.mem_ctrls0.bw_write::ruby.dir_cntrl0       802604                       # Write bandwidth from this memory (bytes/s)
system.mem_ctrls0.bw_write::total              802604                       # Write bandwidth from this memory (bytes/s)
system.mem_ctrls0.bw_total::ruby.dir_cntrl0      1399723                       # Total bandwidth to/from this memory (bytes/s)
system.mem_ctrls0.bw_total::total             1399723                       # Total bandwidth to/from this memory (bytes/s)
system.mem_ctrls0.readReqs                       5774                       # Number of read requests accepted
system.mem_ctrls0.writeReqs                      7761                       # Number of write requests accepted
system.mem_ctrls0.readBursts                     5774                       # Number of DRAM read bursts, including those serviced by the write queue
system.mem_ctrls0.writeBursts                    7761                       # Number of DRAM write bursts, including those merged in the write queue
system.mem_ctrls0.bytesReadDRAM                351104                       # Total number of bytes read from DRAM
system.mem_ctrls0.bytesReadWrQ                  18432                       # Total number of bytes read from write queue
system.mem_ctrls0.bytesWritten                 492928                       # Total number of bytes written to DRAM
system.mem_ctrls0.bytesReadSys                 369536                       # Total read bytes from the system interface side
system.mem_ctrls0.bytesWrittenSys              496704                       # Total written bytes from the system interface side
system.mem_ctrls0.servicedByWrQ                   288                       # Number of DRAM read bursts serviced by the write queue
system.mem_ctrls0.mergedWrBursts                   66                       # Number of DRAM write bursts merged with an existing one
system.mem_ctrls0.neitherReadNorWriteReqs            0                       # Number of requests that are neither read nor write
system.mem_ctrls0.perBankRdBursts::0              355                       # Per bank write bursts
system.mem_ctrls0.perBankRdBursts::1              372                       # Per bank write bursts
system.mem_ctrls0.perBankRdBursts::2              322                       # Per bank write bursts
system.mem_ctrls0.perBankRdBursts::3              406                       # Per bank write bursts
system.mem_ctrls0.perBankRdBursts::4              386                       # Per bank write bursts
system.mem_ctrls0.perBankRdBursts::5              392                       # Per bank write bursts
system.mem_ctrls0.perBankRdBursts::6              315                       # Per bank write bursts
system.mem_ctrls0.perBankRdBursts::7              298                       # Per bank write bursts
system.mem_ctrls0.perBankRdBursts::8              158                       # Per bank write bursts
system.mem_ctrls0.perBankRdBursts::9              215                       # Per bank write bursts
system.mem_ctrls0.perBankRdBursts::10             289                       # Per bank write bursts
system.mem_ctrls0.perBankRdBursts::11             414                       # Per bank write bursts
system.mem_ctrls0.perBankRdBursts::12             396                       # Per bank write bursts
system.mem_ctrls0.perBankRdBursts::13             407                       # Per bank write bursts
system.mem_ctrls0.perBankRdBursts::14             384                       # Per bank write bursts
system.mem_ctrls0.perBankRdBursts::15             377                       # Per bank write bursts
system.mem_ctrls0.perBankWrBursts::0              499                       # Per bank write bursts
system.mem_ctrls0.perBankWrBursts::1              546                       # Per bank write bursts
system.mem_ctrls0.perBankWrBursts::2              488                       # Per bank write bursts
system.mem_ctrls0.perBankWrBursts::3              372                       # Per bank write bursts
system.mem_ctrls0.perBankWrBursts::4              244                       # Per bank write bursts
system.mem_ctrls0.perBankWrBursts::5              381                       # Per bank write bursts
system.mem_ctrls0.perBankWrBursts::6              321                       # Per bank write bursts
system.mem_ctrls0.perBankWrBursts::7              414                       # Per bank write bursts
system.mem_ctrls0.perBankWrBursts::8              628                       # Per bank write bursts
system.mem_ctrls0.perBankWrBursts::9              679                       # Per bank write bursts
system.mem_ctrls0.perBankWrBursts::10             643                       # Per bank write bursts
system.mem_ctrls0.perBankWrBursts::11             610                       # Per bank write bursts
system.mem_ctrls0.perBankWrBursts::12             541                       # Per bank write bursts
system.mem_ctrls0.perBankWrBursts::13             444                       # Per bank write bursts
system.mem_ctrls0.perBankWrBursts::14             422                       # Per bank write bursts
system.mem_ctrls0.perBankWrBursts::15             470                       # Per bank write bursts
system.mem_ctrls0.numRdRetry                        0                       # Number of times read queue was full causing retry
system.mem_ctrls0.numWrRetry                       11                       # Number of times write queue was full causing retry
system.mem_ctrls0.totGap                 618518635500                       # Total gap between requests
system.mem_ctrls0.readPktSize::0                    0                       # Read request sizes (log2)
system.mem_ctrls0.readPktSize::1                    0                       # Read request sizes (log2)
system.mem_ctrls0.readPktSize::2                    0                       # Read request sizes (log2)
system.mem_ctrls0.readPktSize::3                    0                       # Read request sizes (log2)
system.mem_ctrls0.readPktSize::4                    0                       # Read request sizes (log2)
system.mem_ctrls0.readPktSize::5                    0                       # Read request sizes (log2)
system.mem_ctrls0.readPktSize::6                 5774                       # Read request sizes (log2)
system.mem_ctrls0.writePktSize::0                   0                       # Write request sizes (log2)
system.mem_ctrls0.writePktSize::1                   0                       # Write request sizes (log2)
system.mem_ctrls0.writePktSize::2                   0                       # Write request sizes (log2)
system.mem_ctrls0.writePktSize::3                   0                       # Write request sizes (log2)
system.mem_ctrls0.writePktSize::4                   0                       # Write request sizes (log2)
system.mem_ctrls0.writePktSize::5                   0                       # Write request sizes (log2)
system.mem_ctrls0.writePktSize::6                7761                       # Write request sizes (log2)
system.mem_ctrls0.rdQLenPdf::0                   5485                       # What read queue length does an incoming req see
system.mem_ctrls0.rdQLenPdf::1                      1                       # What read queue length does an incoming req see
system.mem_ctrls0.rdQLenPdf::2                      0                       # What read queue length does an incoming req see
system.mem_ctrls0.rdQLenPdf::3                      0                       # What read queue length does an incoming req see
system.mem_ctrls0.rdQLenPdf::4                      0                       # What read queue length does an incoming req see
system.mem_ctrls0.rdQLenPdf::5                      0                       # What read queue length does an incoming req see
system.mem_ctrls0.rdQLenPdf::6                      0                       # What read queue length does an incoming req see
system.mem_ctrls0.rdQLenPdf::7                      0                       # What read queue length does an incoming req see
system.mem_ctrls0.rdQLenPdf::8                      0                       # What read queue length does an incoming req see
system.mem_ctrls0.rdQLenPdf::9                      0                       # What read queue length does an incoming req see
system.mem_ctrls0.rdQLenPdf::10                     0                       # What read queue length does an incoming req see
system.mem_ctrls0.rdQLenPdf::11                     0                       # What read queue length does an incoming req see
system.mem_ctrls0.rdQLenPdf::12                     0                       # What read queue length does an incoming req see
system.mem_ctrls0.rdQLenPdf::13                     0                       # What read queue length does an incoming req see
system.mem_ctrls0.rdQLenPdf::14                     0                       # What read queue length does an incoming req see
system.mem_ctrls0.rdQLenPdf::15                     0                       # What read queue length does an incoming req see
system.mem_ctrls0.rdQLenPdf::16                     0                       # What read queue length does an incoming req see
system.mem_ctrls0.rdQLenPdf::17                     0                       # What read queue length does an incoming req see
system.mem_ctrls0.rdQLenPdf::18                     0                       # What read queue length does an incoming req see
system.mem_ctrls0.rdQLenPdf::19                     0                       # What read queue length does an incoming req see
system.mem_ctrls0.rdQLenPdf::20                     0                       # What read queue length does an incoming req see
system.mem_ctrls0.rdQLenPdf::21                     0                       # What read queue length does an incoming req see
system.mem_ctrls0.rdQLenPdf::22                     0                       # What read queue length does an incoming req see
system.mem_ctrls0.rdQLenPdf::23                     0                       # What read queue length does an incoming req see
system.mem_ctrls0.rdQLenPdf::24                     0                       # What read queue length does an incoming req see
system.mem_ctrls0.rdQLenPdf::25                     0                       # What read queue length does an incoming req see
system.mem_ctrls0.rdQLenPdf::26                     0                       # What read queue length does an incoming req see
system.mem_ctrls0.rdQLenPdf::27                     0                       # What read queue length does an incoming req see
system.mem_ctrls0.rdQLenPdf::28                     0                       # What read queue length does an incoming req see
system.mem_ctrls0.rdQLenPdf::29                     0                       # What read queue length does an incoming req see
system.mem_ctrls0.rdQLenPdf::30                     0                       # What read queue length does an incoming req see
system.mem_ctrls0.rdQLenPdf::31                     0                       # What read queue length does an incoming req see
system.mem_ctrls0.wrQLenPdf::0                      0                       # What write queue length does an incoming req see
system.mem_ctrls0.wrQLenPdf::1                      0                       # What write queue length does an incoming req see
system.mem_ctrls0.wrQLenPdf::2                      0                       # What write queue length does an incoming req see
system.mem_ctrls0.wrQLenPdf::3                      0                       # What write queue length does an incoming req see
system.mem_ctrls0.wrQLenPdf::4                      0                       # What write queue length does an incoming req see
system.mem_ctrls0.wrQLenPdf::5                      0                       # What write queue length does an incoming req see
system.mem_ctrls0.wrQLenPdf::6                      0                       # What write queue length does an incoming req see
system.mem_ctrls0.wrQLenPdf::7                      0                       # What write queue length does an incoming req see
system.mem_ctrls0.wrQLenPdf::8                      0                       # What write queue length does an incoming req see
system.mem_ctrls0.wrQLenPdf::9                      0                       # What write queue length does an incoming req see
system.mem_ctrls0.wrQLenPdf::10                     0                       # What write queue length does an incoming req see
system.mem_ctrls0.wrQLenPdf::11                     0                       # What write queue length does an incoming req see
system.mem_ctrls0.wrQLenPdf::12                     0                       # What write queue length does an incoming req see
system.mem_ctrls0.wrQLenPdf::13                     0                       # What write queue length does an incoming req see
system.mem_ctrls0.wrQLenPdf::14                     0                       # What write queue length does an incoming req see
system.mem_ctrls0.wrQLenPdf::15                    95                       # What write queue length does an incoming req see
system.mem_ctrls0.wrQLenPdf::16                   123                       # What write queue length does an incoming req see
system.mem_ctrls0.wrQLenPdf::17                   385                       # What write queue length does an incoming req see
system.mem_ctrls0.wrQLenPdf::18                   416                       # What write queue length does an incoming req see
system.mem_ctrls0.wrQLenPdf::19                   435                       # What write queue length does an incoming req see
system.mem_ctrls0.wrQLenPdf::20                   450                       # What write queue length does an incoming req see
system.mem_ctrls0.wrQLenPdf::21                   430                       # What write queue length does an incoming req see
system.mem_ctrls0.wrQLenPdf::22                   453                       # What write queue length does an incoming req see
system.mem_ctrls0.wrQLenPdf::23                   429                       # What write queue length does an incoming req see
system.mem_ctrls0.wrQLenPdf::24                   447                       # What write queue length does an incoming req see
system.mem_ctrls0.wrQLenPdf::25                   480                       # What write queue length does an incoming req see
system.mem_ctrls0.wrQLenPdf::26                   446                       # What write queue length does an incoming req see
system.mem_ctrls0.wrQLenPdf::27                   435                       # What write queue length does an incoming req see
system.mem_ctrls0.wrQLenPdf::28                   423                       # What write queue length does an incoming req see
system.mem_ctrls0.wrQLenPdf::29                   411                       # What write queue length does an incoming req see
system.mem_ctrls0.wrQLenPdf::30                   405                       # What write queue length does an incoming req see
system.mem_ctrls0.wrQLenPdf::31                   405                       # What write queue length does an incoming req see
system.mem_ctrls0.wrQLenPdf::32                   406                       # What write queue length does an incoming req see
system.mem_ctrls0.wrQLenPdf::33                    60                       # What write queue length does an incoming req see
system.mem_ctrls0.wrQLenPdf::34                    37                       # What write queue length does an incoming req see
system.mem_ctrls0.wrQLenPdf::35                    38                       # What write queue length does an incoming req see
system.mem_ctrls0.wrQLenPdf::36                    34                       # What write queue length does an incoming req see
system.mem_ctrls0.wrQLenPdf::37                    30                       # What write queue length does an incoming req see
system.mem_ctrls0.wrQLenPdf::38                    29                       # What write queue length does an incoming req see
system.mem_ctrls0.wrQLenPdf::39                    28                       # What write queue length does an incoming req see
system.mem_ctrls0.wrQLenPdf::40                    24                       # What write queue length does an incoming req see
system.mem_ctrls0.wrQLenPdf::41                    21                       # What write queue length does an incoming req see
system.mem_ctrls0.wrQLenPdf::42                    19                       # What write queue length does an incoming req see
system.mem_ctrls0.wrQLenPdf::43                    21                       # What write queue length does an incoming req see
system.mem_ctrls0.wrQLenPdf::44                    21                       # What write queue length does an incoming req see
system.mem_ctrls0.wrQLenPdf::45                    17                       # What write queue length does an incoming req see
system.mem_ctrls0.wrQLenPdf::46                    15                       # What write queue length does an incoming req see
system.mem_ctrls0.wrQLenPdf::47                    14                       # What write queue length does an incoming req see
system.mem_ctrls0.wrQLenPdf::48                    14                       # What write queue length does an incoming req see
system.mem_ctrls0.wrQLenPdf::49                    17                       # What write queue length does an incoming req see
system.mem_ctrls0.wrQLenPdf::50                    16                       # What write queue length does an incoming req see
system.mem_ctrls0.wrQLenPdf::51                    18                       # What write queue length does an incoming req see
system.mem_ctrls0.wrQLenPdf::52                    17                       # What write queue length does an incoming req see
system.mem_ctrls0.wrQLenPdf::53                    17                       # What write queue length does an incoming req see
system.mem_ctrls0.wrQLenPdf::54                    12                       # What write queue length does an incoming req see
system.mem_ctrls0.wrQLenPdf::55                    14                       # What write queue length does an incoming req see
system.mem_ctrls0.wrQLenPdf::56                    13                       # What write queue length does an incoming req see
system.mem_ctrls0.wrQLenPdf::57                    11                       # What write queue length does an incoming req see
system.mem_ctrls0.wrQLenPdf::58                    10                       # What write queue length does an incoming req see
system.mem_ctrls0.wrQLenPdf::59                     9                       # What write queue length does an incoming req see
system.mem_ctrls0.wrQLenPdf::60                     8                       # What write queue length does an incoming req see
system.mem_ctrls0.wrQLenPdf::61                     7                       # What write queue length does an incoming req see
system.mem_ctrls0.wrQLenPdf::62                    11                       # What write queue length does an incoming req see
system.mem_ctrls0.wrQLenPdf::63                    19                       # What write queue length does an incoming req see
system.mem_ctrls0.bytesPerActivate::samples         3538                       # Bytes accessed per row activation
system.mem_ctrls0.bytesPerActivate::mean   238.561899                       # Bytes accessed per row activation
system.mem_ctrls0.bytesPerActivate::gmean   160.363411                       # Bytes accessed per row activation
system.mem_ctrls0.bytesPerActivate::stdev   240.925317                       # Bytes accessed per row activation
system.mem_ctrls0.bytesPerActivate::0-127         1293     36.55%     36.55% # Bytes accessed per row activation
system.mem_ctrls0.bytesPerActivate::128-255          954     26.96%     63.51% # Bytes accessed per row activation
system.mem_ctrls0.bytesPerActivate::256-383          562     15.88%     79.40% # Bytes accessed per row activation
system.mem_ctrls0.bytesPerActivate::384-511          341      9.64%     89.03% # Bytes accessed per row activation
system.mem_ctrls0.bytesPerActivate::512-639          114      3.22%     92.26% # Bytes accessed per row activation
system.mem_ctrls0.bytesPerActivate::640-767           42      1.19%     93.44% # Bytes accessed per row activation
system.mem_ctrls0.bytesPerActivate::768-895           33      0.93%     94.38% # Bytes accessed per row activation
system.mem_ctrls0.bytesPerActivate::896-1023           36      1.02%     95.39% # Bytes accessed per row activation
system.mem_ctrls0.bytesPerActivate::1024-1151          163      4.61%    100.00% # Bytes accessed per row activation
system.mem_ctrls0.bytesPerActivate::total         3538                       # Bytes accessed per row activation
system.mem_ctrls0.rdPerTurnAround::samples          373                       # Reads before turning the bus around for writes
system.mem_ctrls0.rdPerTurnAround::mean     14.737265                       # Reads before turning the bus around for writes
system.mem_ctrls0.rdPerTurnAround::stdev    10.967970                       # Reads before turning the bus around for writes
system.mem_ctrls0.rdPerTurnAround::0-3             79     21.18%     21.18% # Reads before turning the bus around for writes
system.mem_ctrls0.rdPerTurnAround::4-7             22      5.90%     27.08% # Reads before turning the bus around for writes
system.mem_ctrls0.rdPerTurnAround::8-11            13      3.49%     30.56% # Reads before turning the bus around for writes
system.mem_ctrls0.rdPerTurnAround::12-15           14      3.75%     34.32% # Reads before turning the bus around for writes
system.mem_ctrls0.rdPerTurnAround::16-19          172     46.11%     80.43% # Reads before turning the bus around for writes
system.mem_ctrls0.rdPerTurnAround::20-23           35      9.38%     89.81% # Reads before turning the bus around for writes
system.mem_ctrls0.rdPerTurnAround::24-27           18      4.83%     94.64% # Reads before turning the bus around for writes
system.mem_ctrls0.rdPerTurnAround::28-31            4      1.07%     95.71% # Reads before turning the bus around for writes
system.mem_ctrls0.rdPerTurnAround::32-35            6      1.61%     97.32% # Reads before turning the bus around for writes
system.mem_ctrls0.rdPerTurnAround::36-39            4      1.07%     98.39% # Reads before turning the bus around for writes
system.mem_ctrls0.rdPerTurnAround::48-51            1      0.27%     98.66% # Reads before turning the bus around for writes
system.mem_ctrls0.rdPerTurnAround::60-63            1      0.27%     98.93% # Reads before turning the bus around for writes
system.mem_ctrls0.rdPerTurnAround::68-71            1      0.27%     99.20% # Reads before turning the bus around for writes
system.mem_ctrls0.rdPerTurnAround::72-75            2      0.54%     99.73% # Reads before turning the bus around for writes
system.mem_ctrls0.rdPerTurnAround::80-83            1      0.27%    100.00% # Reads before turning the bus around for writes
system.mem_ctrls0.rdPerTurnAround::total          373                       # Reads before turning the bus around for writes
system.mem_ctrls0.wrPerTurnAround::samples          373                       # Writes before turning the bus around for reads
system.mem_ctrls0.wrPerTurnAround::mean     20.648794                       # Writes before turning the bus around for reads
system.mem_ctrls0.wrPerTurnAround::gmean    19.159749                       # Writes before turning the bus around for reads
system.mem_ctrls0.wrPerTurnAround::stdev    10.208971                       # Writes before turning the bus around for reads
system.mem_ctrls0.wrPerTurnAround::16-17          266     71.31%     71.31% # Writes before turning the bus around for reads
system.mem_ctrls0.wrPerTurnAround::18-19           22      5.90%     77.21% # Writes before turning the bus around for reads
system.mem_ctrls0.wrPerTurnAround::20-21            4      1.07%     78.28% # Writes before turning the bus around for reads
system.mem_ctrls0.wrPerTurnAround::22-23            6      1.61%     79.89% # Writes before turning the bus around for reads
system.mem_ctrls0.wrPerTurnAround::24-25            5      1.34%     81.23% # Writes before turning the bus around for reads
system.mem_ctrls0.wrPerTurnAround::26-27            3      0.80%     82.04% # Writes before turning the bus around for reads
system.mem_ctrls0.wrPerTurnAround::28-29           15      4.02%     86.06% # Writes before turning the bus around for reads
system.mem_ctrls0.wrPerTurnAround::30-31            7      1.88%     87.94% # Writes before turning the bus around for reads
system.mem_ctrls0.wrPerTurnAround::32-33            6      1.61%     89.54% # Writes before turning the bus around for reads
system.mem_ctrls0.wrPerTurnAround::34-35            2      0.54%     90.08% # Writes before turning the bus around for reads
system.mem_ctrls0.wrPerTurnAround::36-37            5      1.34%     91.42% # Writes before turning the bus around for reads
system.mem_ctrls0.wrPerTurnAround::38-39            6      1.61%     93.03% # Writes before turning the bus around for reads
system.mem_ctrls0.wrPerTurnAround::40-41            5      1.34%     94.37% # Writes before turning the bus around for reads
system.mem_ctrls0.wrPerTurnAround::42-43            4      1.07%     95.44% # Writes before turning the bus around for reads
system.mem_ctrls0.wrPerTurnAround::46-47            1      0.27%     95.71% # Writes before turning the bus around for reads
system.mem_ctrls0.wrPerTurnAround::48-49            9      2.41%     98.12% # Writes before turning the bus around for reads
system.mem_ctrls0.wrPerTurnAround::50-51            2      0.54%     98.66% # Writes before turning the bus around for reads
system.mem_ctrls0.wrPerTurnAround::56-57            2      0.54%     99.20% # Writes before turning the bus around for reads
system.mem_ctrls0.wrPerTurnAround::66-67            1      0.27%     99.46% # Writes before turning the bus around for reads
system.mem_ctrls0.wrPerTurnAround::70-71            1      0.27%     99.73% # Writes before turning the bus around for reads
system.mem_ctrls0.wrPerTurnAround::100-101            1      0.27%    100.00% # Writes before turning the bus around for reads
system.mem_ctrls0.wrPerTurnAround::total          373                       # Writes before turning the bus around for reads
system.mem_ctrls0.totQLat                   503517500                       # Total ticks spent queuing
system.mem_ctrls0.totMemAccLat              606380000                       # Total ticks spent from burst creation until serviced by the DRAM
system.mem_ctrls0.totBusLat                  27430000                       # Total ticks spent in databus transfers
system.mem_ctrls0.avgQLat                    91782.26                       # Average queueing delay per DRAM burst
system.mem_ctrls0.avgBusLat                   5000.00                       # Average bus latency per DRAM burst
system.mem_ctrls0.avgMemAccLat              110532.26                       # Average memory access latency per DRAM burst
system.mem_ctrls0.avgRdBW                        0.57                       # Average DRAM read bandwidth in MiByte/s
system.mem_ctrls0.avgWrBW                        0.80                       # Average achieved write bandwidth in MiByte/s
system.mem_ctrls0.avgRdBWSys                     0.60                       # Average system read bandwidth in MiByte/s
system.mem_ctrls0.avgWrBWSys                     0.80                       # Average system write bandwidth in MiByte/s
system.mem_ctrls0.peakBW                     12800.00                       # Theoretical peak bandwidth in MiByte/s
system.mem_ctrls0.busUtil                        0.01                       # Data bus utilization in percentage
system.mem_ctrls0.busUtilRead                    0.00                       # Data bus utilization in percentage for reads
system.mem_ctrls0.busUtilWrite                   0.01                       # Data bus utilization in percentage for writes
system.mem_ctrls0.avgRdQLen                      1.00                       # Average read queue length when enqueuing
system.mem_ctrls0.avgWrQLen                     28.18                       # Average write queue length when enqueuing
system.mem_ctrls0.readRowHits                    3613                       # Number of row buffer hits during reads
system.mem_ctrls0.writeRowHits                   6037                       # Number of row buffer hits during writes
system.mem_ctrls0.readRowHitRate                65.86                       # Row buffer hit rate for reads
system.mem_ctrls0.writeRowHitRate               78.45                       # Row buffer hit rate for writes
system.mem_ctrls0.avgGap                  45697719.65                       # Average gap between requests
system.mem_ctrls0.pageHitRate                   73.21                       # Row buffer hit rate, read and write combined
system.mem_ctrls0_0.actEnergy                53949840                       # Energy for activate commands per rank (pJ)
system.mem_ctrls0_0.preEnergy                28675020                       # Energy for precharge commands per rank (pJ)
system.mem_ctrls0_0.readEnergy              141871800                       # Energy for read commands per rank (pJ)
system.mem_ctrls0_0.writeEnergy              39718980                       # Energy for write commands per rank (pJ)
system.mem_ctrls0_0.refreshEnergy        5975530080.000001                       # Energy for refresh commands per rank (pJ)
system.mem_ctrls0_0.actBackEnergy          1740184920                       # Energy for active background per rank (pJ)
system.mem_ctrls0_0.preBackEnergy           350208000                       # Energy for precharge background per rank (pJ)
system.mem_ctrls0_0.actPowerDownEnergy    14858425410                       # Energy for active power-down per rank (pJ)
system.mem_ctrls0_0.prePowerDownEnergy     8384910720                       # Energy for precharge power-down per rank (pJ)
system.mem_ctrls0_0.selfRefreshEnergy    1388424763155                       # Energy for self refresh per rank (pJ)
system.mem_ctrls0_0.totalEnergy          1420000473975                       # Total energy per rank (pJ)
system.mem_ctrls0_0.averagePower           243.192567                       # Core power per rank (mW)
system.mem_ctrls0_0.totalIdleTime        617350252500                       # Total Idle time Per DRAM Rank
system.mem_ctrls0_0.memoryStateTime::IDLE    157514000                       # Time in different power states
system.mem_ctrls0_0.memoryStateTime::REF    489878000                       # Time in different power states
system.mem_ctrls0_0.memoryStateTime::SREF 608685904750                       # Time in different power states
system.mem_ctrls0_0.memoryStateTime::PRE_PDN   4422009250                       # Time in different power states
system.mem_ctrls0_0.memoryStateTime::ACT    517054000                       # Time in different power states
system.mem_ctrls0_0.memoryStateTime::ACT_PDN   5502570500                       # Time in different power states
system.mem_ctrls0_1.actEnergy                45788820                       # Energy for activate commands per rank (pJ)
system.mem_ctrls0_1.preEnergy                24337335                       # Energy for precharge commands per rank (pJ)
system.mem_ctrls0_1.readEnergy              138059040                       # Energy for read commands per rank (pJ)
system.mem_ctrls0_1.writeEnergy              42083640                       # Energy for write commands per rank (pJ)
system.mem_ctrls0_1.refreshEnergy        5091677760.000001                       # Energy for refresh commands per rank (pJ)
system.mem_ctrls0_1.actBackEnergy          1692149310                       # Energy for active background per rank (pJ)
system.mem_ctrls0_1.preBackEnergy           280182240                       # Energy for precharge background per rank (pJ)
system.mem_ctrls0_1.actPowerDownEnergy    13097156760                       # Energy for active power-down per rank (pJ)
system.mem_ctrls0_1.prePowerDownEnergy     6799113120                       # Energy for precharge power-down per rank (pJ)
system.mem_ctrls0_1.selfRefreshEnergy    1390189391985                       # Energy for self refresh per rank (pJ)
system.mem_ctrls0_1.totalEnergy          1417401192000                       # Total energy per rank (pJ)
system.mem_ctrls0_1.averagePower           242.747408                       # Core power per rank (mW)
system.mem_ctrls0_1.totalIdleTime        613223466500                       # Total Idle time Per DRAM Rank
system.mem_ctrls0_1.memoryStateTime::IDLE    131501750                       # Time in different power states
system.mem_ctrls0_1.memoryStateTime::REF    457076000                       # Time in different power states
system.mem_ctrls0_1.memoryStateTime::SREF 612048952500                       # Time in different power states
system.mem_ctrls0_1.memoryStateTime::PRE_PDN   4102632000                       # Time in different power states
system.mem_ctrls0_1.memoryStateTime::ACT    691653000                       # Time in different power states
system.mem_ctrls0_1.memoryStateTime::ACT_PDN   4768597000                       # Time in different power states
system.mem_ctrls1.pwrStateResidencyTicks::UNDEFINED 5838996204000                       # Cumulative time (in ticks) in various power states
system.mem_ctrls1.bytes_read::ruby.dir_cntrl1       359424                       # Number of bytes read from this memory
system.mem_ctrls1.bytes_read::total            359424                       # Number of bytes read from this memory
system.mem_ctrls1.bytes_written::ruby.dir_cntrl1       497088                       # Number of bytes written to this memory
system.mem_ctrls1.bytes_written::total         497088                       # Number of bytes written to this memory
system.mem_ctrls1.num_reads::ruby.dir_cntrl1         5616                       # Number of read requests responded to by this memory
system.mem_ctrls1.num_reads::total               5616                       # Number of read requests responded to by this memory
system.mem_ctrls1.num_writes::ruby.dir_cntrl1         7767                       # Number of write requests responded to by this memory
system.mem_ctrls1.num_writes::total              7767                       # Number of write requests responded to by this memory
system.mem_ctrls1.bw_read::ruby.dir_cntrl1       580779                       # Total read bandwidth from this memory (bytes/s)
system.mem_ctrls1.bw_read::total               580779                       # Total read bandwidth from this memory (bytes/s)
system.mem_ctrls1.bw_write::ruby.dir_cntrl1       803225                       # Write bandwidth from this memory (bytes/s)
system.mem_ctrls1.bw_write::total              803225                       # Write bandwidth from this memory (bytes/s)
system.mem_ctrls1.bw_total::ruby.dir_cntrl1      1384004                       # Total bandwidth to/from this memory (bytes/s)
system.mem_ctrls1.bw_total::total             1384004                       # Total bandwidth to/from this memory (bytes/s)
system.mem_ctrls1.readReqs                       5616                       # Number of read requests accepted
system.mem_ctrls1.writeReqs                      7767                       # Number of write requests accepted
system.mem_ctrls1.readBursts                     5616                       # Number of DRAM read bursts, including those serviced by the write queue
system.mem_ctrls1.writeBursts                    7767                       # Number of DRAM write bursts, including those merged in the write queue
system.mem_ctrls1.bytesReadDRAM                346560                       # Total number of bytes read from DRAM
system.mem_ctrls1.bytesReadWrQ                  12864                       # Total number of bytes read from write queue
system.mem_ctrls1.bytesWritten                 497920                       # Total number of bytes written to DRAM
system.mem_ctrls1.bytesReadSys                 359424                       # Total read bytes from the system interface side
system.mem_ctrls1.bytesWrittenSys              497088                       # Total written bytes from the system interface side
system.mem_ctrls1.servicedByWrQ                   201                       # Number of DRAM read bursts serviced by the write queue
system.mem_ctrls1.mergedWrBursts                    0                       # Number of DRAM write bursts merged with an existing one
system.mem_ctrls1.neitherReadNorWriteReqs            0                       # Number of requests that are neither read nor write
system.mem_ctrls1.perBankRdBursts::0              356                       # Per bank write bursts
system.mem_ctrls1.perBankRdBursts::1              377                       # Per bank write bursts
system.mem_ctrls1.perBankRdBursts::2              325                       # Per bank write bursts
system.mem_ctrls1.perBankRdBursts::3              406                       # Per bank write bursts
system.mem_ctrls1.perBankRdBursts::4              386                       # Per bank write bursts
system.mem_ctrls1.perBankRdBursts::5              295                       # Per bank write bursts
system.mem_ctrls1.perBankRdBursts::6              311                       # Per bank write bursts
system.mem_ctrls1.perBankRdBursts::7              301                       # Per bank write bursts
system.mem_ctrls1.perBankRdBursts::8              155                       # Per bank write bursts
system.mem_ctrls1.perBankRdBursts::9              214                       # Per bank write bursts
system.mem_ctrls1.perBankRdBursts::10             294                       # Per bank write bursts
system.mem_ctrls1.perBankRdBursts::11             411                       # Per bank write bursts
system.mem_ctrls1.perBankRdBursts::12             398                       # Per bank write bursts
system.mem_ctrls1.perBankRdBursts::13             409                       # Per bank write bursts
system.mem_ctrls1.perBankRdBursts::14             394                       # Per bank write bursts
system.mem_ctrls1.perBankRdBursts::15             383                       # Per bank write bursts
system.mem_ctrls1.perBankWrBursts::0              499                       # Per bank write bursts
system.mem_ctrls1.perBankWrBursts::1              559                       # Per bank write bursts
system.mem_ctrls1.perBankWrBursts::2              491                       # Per bank write bursts
system.mem_ctrls1.perBankWrBursts::3              377                       # Per bank write bursts
system.mem_ctrls1.perBankWrBursts::4              250                       # Per bank write bursts
system.mem_ctrls1.perBankWrBursts::5              351                       # Per bank write bursts
system.mem_ctrls1.perBankWrBursts::6              362                       # Per bank write bursts
system.mem_ctrls1.perBankWrBursts::7              421                       # Per bank write bursts
system.mem_ctrls1.perBankWrBursts::8              642                       # Per bank write bursts
system.mem_ctrls1.perBankWrBursts::9              672                       # Per bank write bursts
system.mem_ctrls1.perBankWrBursts::10             657                       # Per bank write bursts
system.mem_ctrls1.perBankWrBursts::11             612                       # Per bank write bursts
system.mem_ctrls1.perBankWrBursts::12             546                       # Per bank write bursts
system.mem_ctrls1.perBankWrBursts::13             448                       # Per bank write bursts
system.mem_ctrls1.perBankWrBursts::14             428                       # Per bank write bursts
system.mem_ctrls1.perBankWrBursts::15             465                       # Per bank write bursts
system.mem_ctrls1.numRdRetry                        0                       # Number of times read queue was full causing retry
system.mem_ctrls1.numWrRetry                       24                       # Number of times write queue was full causing retry
system.mem_ctrls1.totGap                 620931145000                       # Total gap between requests
system.mem_ctrls1.readPktSize::0                    0                       # Read request sizes (log2)
system.mem_ctrls1.readPktSize::1                    0                       # Read request sizes (log2)
system.mem_ctrls1.readPktSize::2                    0                       # Read request sizes (log2)
system.mem_ctrls1.readPktSize::3                    0                       # Read request sizes (log2)
system.mem_ctrls1.readPktSize::4                    0                       # Read request sizes (log2)
system.mem_ctrls1.readPktSize::5                    0                       # Read request sizes (log2)
system.mem_ctrls1.readPktSize::6                 5616                       # Read request sizes (log2)
system.mem_ctrls1.writePktSize::0                   0                       # Write request sizes (log2)
system.mem_ctrls1.writePktSize::1                   0                       # Write request sizes (log2)
system.mem_ctrls1.writePktSize::2                   0                       # Write request sizes (log2)
system.mem_ctrls1.writePktSize::3                   0                       # Write request sizes (log2)
system.mem_ctrls1.writePktSize::4                   0                       # Write request sizes (log2)
system.mem_ctrls1.writePktSize::5                   0                       # Write request sizes (log2)
system.mem_ctrls1.writePktSize::6                7767                       # Write request sizes (log2)
system.mem_ctrls1.rdQLenPdf::0                   5415                       # What read queue length does an incoming req see
system.mem_ctrls1.rdQLenPdf::1                      0                       # What read queue length does an incoming req see
system.mem_ctrls1.rdQLenPdf::2                      0                       # What read queue length does an incoming req see
system.mem_ctrls1.rdQLenPdf::3                      0                       # What read queue length does an incoming req see
system.mem_ctrls1.rdQLenPdf::4                      0                       # What read queue length does an incoming req see
system.mem_ctrls1.rdQLenPdf::5                      0                       # What read queue length does an incoming req see
system.mem_ctrls1.rdQLenPdf::6                      0                       # What read queue length does an incoming req see
system.mem_ctrls1.rdQLenPdf::7                      0                       # What read queue length does an incoming req see
system.mem_ctrls1.rdQLenPdf::8                      0                       # What read queue length does an incoming req see
system.mem_ctrls1.rdQLenPdf::9                      0                       # What read queue length does an incoming req see
system.mem_ctrls1.rdQLenPdf::10                     0                       # What read queue length does an incoming req see
system.mem_ctrls1.rdQLenPdf::11                     0                       # What read queue length does an incoming req see
system.mem_ctrls1.rdQLenPdf::12                     0                       # What read queue length does an incoming req see
system.mem_ctrls1.rdQLenPdf::13                     0                       # What read queue length does an incoming req see
system.mem_ctrls1.rdQLenPdf::14                     0                       # What read queue length does an incoming req see
system.mem_ctrls1.rdQLenPdf::15                     0                       # What read queue length does an incoming req see
system.mem_ctrls1.rdQLenPdf::16                     0                       # What read queue length does an incoming req see
system.mem_ctrls1.rdQLenPdf::17                     0                       # What read queue length does an incoming req see
system.mem_ctrls1.rdQLenPdf::18                     0                       # What read queue length does an incoming req see
system.mem_ctrls1.rdQLenPdf::19                     0                       # What read queue length does an incoming req see
system.mem_ctrls1.rdQLenPdf::20                     0                       # What read queue length does an incoming req see
system.mem_ctrls1.rdQLenPdf::21                     0                       # What read queue length does an incoming req see
system.mem_ctrls1.rdQLenPdf::22                     0                       # What read queue length does an incoming req see
system.mem_ctrls1.rdQLenPdf::23                     0                       # What read queue length does an incoming req see
system.mem_ctrls1.rdQLenPdf::24                     0                       # What read queue length does an incoming req see
system.mem_ctrls1.rdQLenPdf::25                     0                       # What read queue length does an incoming req see
system.mem_ctrls1.rdQLenPdf::26                     0                       # What read queue length does an incoming req see
system.mem_ctrls1.rdQLenPdf::27                     0                       # What read queue length does an incoming req see
system.mem_ctrls1.rdQLenPdf::28                     0                       # What read queue length does an incoming req see
system.mem_ctrls1.rdQLenPdf::29                     0                       # What read queue length does an incoming req see
system.mem_ctrls1.rdQLenPdf::30                     0                       # What read queue length does an incoming req see
system.mem_ctrls1.rdQLenPdf::31                     0                       # What read queue length does an incoming req see
system.mem_ctrls1.wrQLenPdf::0                      0                       # What write queue length does an incoming req see
system.mem_ctrls1.wrQLenPdf::1                      0                       # What write queue length does an incoming req see
system.mem_ctrls1.wrQLenPdf::2                      0                       # What write queue length does an incoming req see
system.mem_ctrls1.wrQLenPdf::3                      0                       # What write queue length does an incoming req see
system.mem_ctrls1.wrQLenPdf::4                      0                       # What write queue length does an incoming req see
system.mem_ctrls1.wrQLenPdf::5                      0                       # What write queue length does an incoming req see
system.mem_ctrls1.wrQLenPdf::6                      0                       # What write queue length does an incoming req see
system.mem_ctrls1.wrQLenPdf::7                      0                       # What write queue length does an incoming req see
system.mem_ctrls1.wrQLenPdf::8                      0                       # What write queue length does an incoming req see
system.mem_ctrls1.wrQLenPdf::9                      0                       # What write queue length does an incoming req see
system.mem_ctrls1.wrQLenPdf::10                     0                       # What write queue length does an incoming req see
system.mem_ctrls1.wrQLenPdf::11                     0                       # What write queue length does an incoming req see
system.mem_ctrls1.wrQLenPdf::12                     0                       # What write queue length does an incoming req see
system.mem_ctrls1.wrQLenPdf::13                     0                       # What write queue length does an incoming req see
system.mem_ctrls1.wrQLenPdf::14                     0                       # What write queue length does an incoming req see
system.mem_ctrls1.wrQLenPdf::15                   104                       # What write queue length does an incoming req see
system.mem_ctrls1.wrQLenPdf::16                   132                       # What write queue length does an incoming req see
system.mem_ctrls1.wrQLenPdf::17                   387                       # What write queue length does an incoming req see
system.mem_ctrls1.wrQLenPdf::18                   417                       # What write queue length does an incoming req see
system.mem_ctrls1.wrQLenPdf::19                   436                       # What write queue length does an incoming req see
system.mem_ctrls1.wrQLenPdf::20                   434                       # What write queue length does an incoming req see
system.mem_ctrls1.wrQLenPdf::21                   416                       # What write queue length does an incoming req see
system.mem_ctrls1.wrQLenPdf::22                   445                       # What write queue length does an incoming req see
system.mem_ctrls1.wrQLenPdf::23                   419                       # What write queue length does an incoming req see
system.mem_ctrls1.wrQLenPdf::24                   450                       # What write queue length does an incoming req see
system.mem_ctrls1.wrQLenPdf::25                   472                       # What write queue length does an incoming req see
system.mem_ctrls1.wrQLenPdf::26                   422                       # What write queue length does an incoming req see
system.mem_ctrls1.wrQLenPdf::27                   397                       # What write queue length does an incoming req see
system.mem_ctrls1.wrQLenPdf::28                   401                       # What write queue length does an incoming req see
system.mem_ctrls1.wrQLenPdf::29                   398                       # What write queue length does an incoming req see
system.mem_ctrls1.wrQLenPdf::30                   380                       # What write queue length does an incoming req see
system.mem_ctrls1.wrQLenPdf::31                   375                       # What write queue length does an incoming req see
system.mem_ctrls1.wrQLenPdf::32                   372                       # What write queue length does an incoming req see
system.mem_ctrls1.wrQLenPdf::33                    47                       # What write queue length does an incoming req see
system.mem_ctrls1.wrQLenPdf::34                    43                       # What write queue length does an incoming req see
system.mem_ctrls1.wrQLenPdf::35                    43                       # What write queue length does an incoming req see
system.mem_ctrls1.wrQLenPdf::36                    40                       # What write queue length does an incoming req see
system.mem_ctrls1.wrQLenPdf::37                    34                       # What write queue length does an incoming req see
system.mem_ctrls1.wrQLenPdf::38                    34                       # What write queue length does an incoming req see
system.mem_ctrls1.wrQLenPdf::39                    34                       # What write queue length does an incoming req see
system.mem_ctrls1.wrQLenPdf::40                    35                       # What write queue length does an incoming req see
system.mem_ctrls1.wrQLenPdf::41                    35                       # What write queue length does an incoming req see
system.mem_ctrls1.wrQLenPdf::42                    31                       # What write queue length does an incoming req see
system.mem_ctrls1.wrQLenPdf::43                    29                       # What write queue length does an incoming req see
system.mem_ctrls1.wrQLenPdf::44                    28                       # What write queue length does an incoming req see
system.mem_ctrls1.wrQLenPdf::45                    28                       # What write queue length does an incoming req see
system.mem_ctrls1.wrQLenPdf::46                    27                       # What write queue length does an incoming req see
system.mem_ctrls1.wrQLenPdf::47                    28                       # What write queue length does an incoming req see
system.mem_ctrls1.wrQLenPdf::48                    28                       # What write queue length does an incoming req see
system.mem_ctrls1.wrQLenPdf::49                    27                       # What write queue length does an incoming req see
system.mem_ctrls1.wrQLenPdf::50                    26                       # What write queue length does an incoming req see
system.mem_ctrls1.wrQLenPdf::51                    26                       # What write queue length does an incoming req see
system.mem_ctrls1.wrQLenPdf::52                    23                       # What write queue length does an incoming req see
system.mem_ctrls1.wrQLenPdf::53                    20                       # What write queue length does an incoming req see
system.mem_ctrls1.wrQLenPdf::54                    21                       # What write queue length does an incoming req see
system.mem_ctrls1.wrQLenPdf::55                    21                       # What write queue length does an incoming req see
system.mem_ctrls1.wrQLenPdf::56                    30                       # What write queue length does an incoming req see
system.mem_ctrls1.wrQLenPdf::57                    27                       # What write queue length does an incoming req see
system.mem_ctrls1.wrQLenPdf::58                    27                       # What write queue length does an incoming req see
system.mem_ctrls1.wrQLenPdf::59                    25                       # What write queue length does an incoming req see
system.mem_ctrls1.wrQLenPdf::60                    17                       # What write queue length does an incoming req see
system.mem_ctrls1.wrQLenPdf::61                    15                       # What write queue length does an incoming req see
system.mem_ctrls1.wrQLenPdf::62                    18                       # What write queue length does an incoming req see
system.mem_ctrls1.wrQLenPdf::63                    43                       # What write queue length does an incoming req see
system.mem_ctrls1.bytesPerActivate::samples         3459                       # Bytes accessed per row activation
system.mem_ctrls1.bytesPerActivate::mean   244.139925                       # Bytes accessed per row activation
system.mem_ctrls1.bytesPerActivate::gmean   163.153427                       # Bytes accessed per row activation
system.mem_ctrls1.bytesPerActivate::stdev   245.055136                       # Bytes accessed per row activation
system.mem_ctrls1.bytesPerActivate::0-127         1251     36.17%     36.17% # Bytes accessed per row activation
system.mem_ctrls1.bytesPerActivate::128-255          927     26.80%     62.97% # Bytes accessed per row activation
system.mem_ctrls1.bytesPerActivate::256-383          500     14.46%     77.42% # Bytes accessed per row activation
system.mem_ctrls1.bytesPerActivate::384-511          363     10.49%     87.92% # Bytes accessed per row activation
system.mem_ctrls1.bytesPerActivate::512-639          132      3.82%     91.73% # Bytes accessed per row activation
system.mem_ctrls1.bytesPerActivate::640-767           55      1.59%     93.32% # Bytes accessed per row activation
system.mem_ctrls1.bytesPerActivate::768-895           32      0.93%     94.25% # Bytes accessed per row activation
system.mem_ctrls1.bytesPerActivate::896-1023           34      0.98%     95.23% # Bytes accessed per row activation
system.mem_ctrls1.bytesPerActivate::1024-1151          165      4.77%    100.00% # Bytes accessed per row activation
system.mem_ctrls1.bytesPerActivate::total         3459                       # Bytes accessed per row activation
system.mem_ctrls1.rdPerTurnAround::samples          369                       # Reads before turning the bus around for writes
system.mem_ctrls1.rdPerTurnAround::mean     14.734417                       # Reads before turning the bus around for writes
system.mem_ctrls1.rdPerTurnAround::stdev    10.153706                       # Reads before turning the bus around for writes
system.mem_ctrls1.rdPerTurnAround::0-3             69     18.70%     18.70% # Reads before turning the bus around for writes
system.mem_ctrls1.rdPerTurnAround::4-7             21      5.69%     24.39% # Reads before turning the bus around for writes
system.mem_ctrls1.rdPerTurnAround::8-11            15      4.07%     28.46% # Reads before turning the bus around for writes
system.mem_ctrls1.rdPerTurnAround::12-15           12      3.25%     31.71% # Reads before turning the bus around for writes
system.mem_ctrls1.rdPerTurnAround::16-19          181     49.05%     80.76% # Reads before turning the bus around for writes
system.mem_ctrls1.rdPerTurnAround::20-23           37     10.03%     90.79% # Reads before turning the bus around for writes
system.mem_ctrls1.rdPerTurnAround::24-27           15      4.07%     94.85% # Reads before turning the bus around for writes
system.mem_ctrls1.rdPerTurnAround::28-31            6      1.63%     96.48% # Reads before turning the bus around for writes
system.mem_ctrls1.rdPerTurnAround::32-35            5      1.36%     97.83% # Reads before turning the bus around for writes
system.mem_ctrls1.rdPerTurnAround::36-39            2      0.54%     98.37% # Reads before turning the bus around for writes
system.mem_ctrls1.rdPerTurnAround::40-43            1      0.27%     98.64% # Reads before turning the bus around for writes
system.mem_ctrls1.rdPerTurnAround::44-47            2      0.54%     99.19% # Reads before turning the bus around for writes
system.mem_ctrls1.rdPerTurnAround::64-67            1      0.27%     99.46% # Reads before turning the bus around for writes
system.mem_ctrls1.rdPerTurnAround::72-75            1      0.27%     99.73% # Reads before turning the bus around for writes
system.mem_ctrls1.rdPerTurnAround::80-83            1      0.27%    100.00% # Reads before turning the bus around for writes
system.mem_ctrls1.rdPerTurnAround::total          369                       # Reads before turning the bus around for writes
system.mem_ctrls1.wrPerTurnAround::samples          369                       # Writes before turning the bus around for reads
system.mem_ctrls1.wrPerTurnAround::mean     21.084011                       # Writes before turning the bus around for reads
system.mem_ctrls1.wrPerTurnAround::gmean    19.335083                       # Writes before turning the bus around for reads
system.mem_ctrls1.wrPerTurnAround::stdev    11.290193                       # Writes before turning the bus around for reads
system.mem_ctrls1.wrPerTurnAround::16-17          265     71.82%     71.82% # Writes before turning the bus around for reads
system.mem_ctrls1.wrPerTurnAround::18-19           22      5.96%     77.78% # Writes before turning the bus around for reads
system.mem_ctrls1.wrPerTurnAround::20-21            3      0.81%     78.59% # Writes before turning the bus around for reads
system.mem_ctrls1.wrPerTurnAround::22-23            4      1.08%     79.67% # Writes before turning the bus around for reads
system.mem_ctrls1.wrPerTurnAround::24-25            2      0.54%     80.22% # Writes before turning the bus around for reads
system.mem_ctrls1.wrPerTurnAround::26-27            4      1.08%     81.30% # Writes before turning the bus around for reads
system.mem_ctrls1.wrPerTurnAround::28-29           11      2.98%     84.28% # Writes before turning the bus around for reads
system.mem_ctrls1.wrPerTurnAround::30-31            5      1.36%     85.64% # Writes before turning the bus around for reads
system.mem_ctrls1.wrPerTurnAround::32-33            8      2.17%     87.80% # Writes before turning the bus around for reads
system.mem_ctrls1.wrPerTurnAround::34-35            5      1.36%     89.16% # Writes before turning the bus around for reads
system.mem_ctrls1.wrPerTurnAround::36-37            7      1.90%     91.06% # Writes before turning the bus around for reads
system.mem_ctrls1.wrPerTurnAround::38-39            6      1.63%     92.68% # Writes before turning the bus around for reads
system.mem_ctrls1.wrPerTurnAround::40-41            2      0.54%     93.22% # Writes before turning the bus around for reads
system.mem_ctrls1.wrPerTurnAround::42-43            2      0.54%     93.77% # Writes before turning the bus around for reads
system.mem_ctrls1.wrPerTurnAround::44-45            1      0.27%     94.04% # Writes before turning the bus around for reads
system.mem_ctrls1.wrPerTurnAround::46-47            2      0.54%     94.58% # Writes before turning the bus around for reads
system.mem_ctrls1.wrPerTurnAround::48-49            7      1.90%     96.48% # Writes before turning the bus around for reads
system.mem_ctrls1.wrPerTurnAround::50-51            2      0.54%     97.02% # Writes before turning the bus around for reads
system.mem_ctrls1.wrPerTurnAround::54-55            1      0.27%     97.29% # Writes before turning the bus around for reads
system.mem_ctrls1.wrPerTurnAround::56-57            3      0.81%     98.10% # Writes before turning the bus around for reads
system.mem_ctrls1.wrPerTurnAround::60-61            2      0.54%     98.64% # Writes before turning the bus around for reads
system.mem_ctrls1.wrPerTurnAround::64-65            1      0.27%     98.92% # Writes before turning the bus around for reads
system.mem_ctrls1.wrPerTurnAround::66-67            1      0.27%     99.19% # Writes before turning the bus around for reads
system.mem_ctrls1.wrPerTurnAround::68-69            1      0.27%     99.46% # Writes before turning the bus around for reads
system.mem_ctrls1.wrPerTurnAround::74-75            1      0.27%     99.73% # Writes before turning the bus around for reads
system.mem_ctrls1.wrPerTurnAround::100-101            1      0.27%    100.00% # Writes before turning the bus around for reads
system.mem_ctrls1.wrPerTurnAround::total          369                       # Writes before turning the bus around for reads
system.mem_ctrls1.totQLat                   477487999                       # Total ticks spent queuing
system.mem_ctrls1.totMemAccLat              579019249                       # Total ticks spent from burst creation until serviced by the DRAM
system.mem_ctrls1.totBusLat                  27075000                       # Total ticks spent in databus transfers
system.mem_ctrls1.avgQLat                    88178.76                       # Average queueing delay per DRAM burst
system.mem_ctrls1.avgBusLat                   5000.00                       # Average bus latency per DRAM burst
system.mem_ctrls1.avgMemAccLat              106928.76                       # Average memory access latency per DRAM burst
system.mem_ctrls1.avgRdBW                        0.56                       # Average DRAM read bandwidth in MiByte/s
system.mem_ctrls1.avgWrBW                        0.80                       # Average achieved write bandwidth in MiByte/s
system.mem_ctrls1.avgRdBWSys                     0.58                       # Average system read bandwidth in MiByte/s
system.mem_ctrls1.avgWrBWSys                     0.80                       # Average system write bandwidth in MiByte/s
system.mem_ctrls1.peakBW                     12800.00                       # Theoretical peak bandwidth in MiByte/s
system.mem_ctrls1.busUtil                        0.01                       # Data bus utilization in percentage
system.mem_ctrls1.busUtilRead                    0.00                       # Data bus utilization in percentage for reads
system.mem_ctrls1.busUtilWrite                   0.01                       # Data bus utilization in percentage for writes
system.mem_ctrls1.avgRdQLen                      1.00                       # Average read queue length when enqueuing
system.mem_ctrls1.avgWrQLen                     23.41                       # Average write queue length when enqueuing
system.mem_ctrls1.readRowHits                    3607                       # Number of row buffer hits during reads
system.mem_ctrls1.writeRowHits                   6129                       # Number of row buffer hits during writes
system.mem_ctrls1.readRowHitRate                66.61                       # Row buffer hit rate for reads
system.mem_ctrls1.writeRowHitRate               78.91                       # Row buffer hit rate for writes
system.mem_ctrls1.avgGap                  46397007.02                       # Average gap between requests
system.mem_ctrls1.pageHitRate                   73.86                       # Row buffer hit rate, read and write combined
system.mem_ctrls1_0.actEnergy                51593640                       # Energy for activate commands per rank (pJ)
system.mem_ctrls1_0.preEnergy                27422670                       # Energy for precharge commands per rank (pJ)
system.mem_ctrls1_0.readEnergy              141193500                       # Energy for read commands per rank (pJ)
system.mem_ctrls1_0.writeEnergy              39661560                       # Energy for write commands per rank (pJ)
system.mem_ctrls1_0.refreshEnergy        5730288720.000001                       # Energy for refresh commands per rank (pJ)
system.mem_ctrls1_0.actBackEnergy          1740428310                       # Energy for active background per rank (pJ)
system.mem_ctrls1_0.preBackEnergy           347937600                       # Energy for precharge background per rank (pJ)
system.mem_ctrls1_0.actPowerDownEnergy    14354258700                       # Energy for active power-down per rank (pJ)
system.mem_ctrls1_0.prePowerDownEnergy     7923165120                       # Energy for precharge power-down per rank (pJ)
system.mem_ctrls1_0.selfRefreshEnergy    1388919246900                       # Energy for self refresh per rank (pJ)
system.mem_ctrls1_0.totalEnergy          1419276078780                       # Total energy per rank (pJ)
system.mem_ctrls1_0.averagePower           243.068505                       # Core power per rank (mW)
system.mem_ctrls1_0.totalIdleTime        619968994250                       # Total Idle time Per DRAM Rank
system.mem_ctrls1_0.memoryStateTime::IDLE    157143750                       # Time in different power states
system.mem_ctrls1_0.memoryStateTime::REF    464278000                       # Time in different power states
system.mem_ctrls1_0.memoryStateTime::SREF 611937244500                       # Time in different power states
system.mem_ctrls1_0.memoryStateTime::PRE_PDN   4139205000                       # Time in different power states
system.mem_ctrls1_0.memoryStateTime::ACT    555753250                       # Time in different power states
system.mem_ctrls1_0.memoryStateTime::ACT_PDN   5154598250                       # Time in different power states
system.mem_ctrls1_1.actEnergy                46095840                       # Energy for activate commands per rank (pJ)
system.mem_ctrls1_1.preEnergy                24500520                       # Energy for precharge commands per rank (pJ)
system.mem_ctrls1_1.readEnergy              138358920                       # Energy for read commands per rank (pJ)
system.mem_ctrls1_1.writeEnergy              42193260                       # Energy for write commands per rank (pJ)
system.mem_ctrls1_1.refreshEnergy        5108887680.000001                       # Energy for refresh commands per rank (pJ)
system.mem_ctrls1_1.actBackEnergy          1718282100                       # Energy for active background per rank (pJ)
system.mem_ctrls1_1.preBackEnergy           279669120                       # Energy for precharge background per rank (pJ)
system.mem_ctrls1_1.actPowerDownEnergy    13105180650                       # Energy for active power-down per rank (pJ)
system.mem_ctrls1_1.prePowerDownEnergy     6807616320                       # Energy for precharge power-down per rank (pJ)
system.mem_ctrls1_1.selfRefreshEnergy    1390175633835                       # Energy for self refresh per rank (pJ)
system.mem_ctrls1_1.totalEnergy          1417447204905                       # Total energy per rank (pJ)
system.mem_ctrls1_1.averagePower           242.755288                       # Core power per rank (mW)
system.mem_ctrls1_1.totalIdleTime        616823136500                       # Total Idle time Per DRAM Rank
system.mem_ctrls1_1.memoryStateTime::IDLE    135491500                       # Time in different power states
system.mem_ctrls1_1.memoryStateTime::REF    460286000                       # Time in different power states
system.mem_ctrls1_1.memoryStateTime::SREF 612032869750                       # Time in different power states
system.mem_ctrls1_1.memoryStateTime::PRE_PDN   4165714250                       # Time in different power states
system.mem_ctrls1_1.memoryStateTime::ACT    666973500                       # Time in different power states
system.mem_ctrls1_1.memoryStateTime::ACT_PDN   4729426500                       # Time in different power states
system.mem_ctrls2.pwrStateResidencyTicks::UNDEFINED 5838996204000                       # Cumulative time (in ticks) in various power states
system.mem_ctrls2.bytes_read::ruby.dir_cntrl2       357696                       # Number of bytes read from this memory
system.mem_ctrls2.bytes_read::total            357696                       # Number of bytes read from this memory
system.mem_ctrls2.bytes_written::ruby.dir_cntrl2       487360                       # Number of bytes written to this memory
system.mem_ctrls2.bytes_written::total         487360                       # Number of bytes written to this memory
system.mem_ctrls2.num_reads::ruby.dir_cntrl2         5589                       # Number of read requests responded to by this memory
system.mem_ctrls2.num_reads::total               5589                       # Number of read requests responded to by this memory
system.mem_ctrls2.num_writes::ruby.dir_cntrl2         7615                       # Number of write requests responded to by this memory
system.mem_ctrls2.num_writes::total              7615                       # Number of write requests responded to by this memory
system.mem_ctrls2.bw_read::ruby.dir_cntrl2       577987                       # Total read bandwidth from this memory (bytes/s)
system.mem_ctrls2.bw_read::total               577987                       # Total read bandwidth from this memory (bytes/s)
system.mem_ctrls2.bw_write::ruby.dir_cntrl2       787506                       # Write bandwidth from this memory (bytes/s)
system.mem_ctrls2.bw_write::total              787506                       # Write bandwidth from this memory (bytes/s)
system.mem_ctrls2.bw_total::ruby.dir_cntrl2      1365493                       # Total bandwidth to/from this memory (bytes/s)
system.mem_ctrls2.bw_total::total             1365493                       # Total bandwidth to/from this memory (bytes/s)
system.mem_ctrls2.readReqs                       5589                       # Number of read requests accepted
system.mem_ctrls2.writeReqs                      7615                       # Number of write requests accepted
system.mem_ctrls2.readBursts                     5589                       # Number of DRAM read bursts, including those serviced by the write queue
system.mem_ctrls2.writeBursts                    7615                       # Number of DRAM write bursts, including those merged in the write queue
system.mem_ctrls2.bytesReadDRAM                345216                       # Total number of bytes read from DRAM
system.mem_ctrls2.bytesReadWrQ                  12480                       # Total number of bytes read from write queue
system.mem_ctrls2.bytesWritten                 487552                       # Total number of bytes written to DRAM
system.mem_ctrls2.bytesReadSys                 357696                       # Total read bytes from the system interface side
system.mem_ctrls2.bytesWrittenSys              487360                       # Total written bytes from the system interface side
system.mem_ctrls2.servicedByWrQ                   195                       # Number of DRAM read bursts serviced by the write queue
system.mem_ctrls2.mergedWrBursts                    0                       # Number of DRAM write bursts merged with an existing one
system.mem_ctrls2.neitherReadNorWriteReqs            0                       # Number of requests that are neither read nor write
system.mem_ctrls2.perBankRdBursts::0              362                       # Per bank write bursts
system.mem_ctrls2.perBankRdBursts::1              369                       # Per bank write bursts
system.mem_ctrls2.perBankRdBursts::2              313                       # Per bank write bursts
system.mem_ctrls2.perBankRdBursts::3              402                       # Per bank write bursts
system.mem_ctrls2.perBankRdBursts::4              385                       # Per bank write bursts
system.mem_ctrls2.perBankRdBursts::5              296                       # Per bank write bursts
system.mem_ctrls2.perBankRdBursts::6              315                       # Per bank write bursts
system.mem_ctrls2.perBankRdBursts::7              313                       # Per bank write bursts
system.mem_ctrls2.perBankRdBursts::8              160                       # Per bank write bursts
system.mem_ctrls2.perBankRdBursts::9              207                       # Per bank write bursts
system.mem_ctrls2.perBankRdBursts::10             293                       # Per bank write bursts
system.mem_ctrls2.perBankRdBursts::11             413                       # Per bank write bursts
system.mem_ctrls2.perBankRdBursts::12             391                       # Per bank write bursts
system.mem_ctrls2.perBankRdBursts::13             414                       # Per bank write bursts
system.mem_ctrls2.perBankRdBursts::14             380                       # Per bank write bursts
system.mem_ctrls2.perBankRdBursts::15             381                       # Per bank write bursts
system.mem_ctrls2.perBankWrBursts::0              503                       # Per bank write bursts
system.mem_ctrls2.perBankWrBursts::1              549                       # Per bank write bursts
system.mem_ctrls2.perBankWrBursts::2              484                       # Per bank write bursts
system.mem_ctrls2.perBankWrBursts::3              363                       # Per bank write bursts
system.mem_ctrls2.perBankWrBursts::4              233                       # Per bank write bursts
system.mem_ctrls2.perBankWrBursts::5              316                       # Per bank write bursts
system.mem_ctrls2.perBankWrBursts::6              315                       # Per bank write bursts
system.mem_ctrls2.perBankWrBursts::7              421                       # Per bank write bursts
system.mem_ctrls2.perBankWrBursts::8              638                       # Per bank write bursts
system.mem_ctrls2.perBankWrBursts::9              658                       # Per bank write bursts
system.mem_ctrls2.perBankWrBursts::10             645                       # Per bank write bursts
system.mem_ctrls2.perBankWrBursts::11             618                       # Per bank write bursts
system.mem_ctrls2.perBankWrBursts::12             544                       # Per bank write bursts
system.mem_ctrls2.perBankWrBursts::13             451                       # Per bank write bursts
system.mem_ctrls2.perBankWrBursts::14             421                       # Per bank write bursts
system.mem_ctrls2.perBankWrBursts::15             459                       # Per bank write bursts
system.mem_ctrls2.numRdRetry                        0                       # Number of times read queue was full causing retry
system.mem_ctrls2.numWrRetry                       16                       # Number of times write queue was full causing retry
system.mem_ctrls2.totGap                 619888786000                       # Total gap between requests
system.mem_ctrls2.readPktSize::0                    0                       # Read request sizes (log2)
system.mem_ctrls2.readPktSize::1                    0                       # Read request sizes (log2)
system.mem_ctrls2.readPktSize::2                    0                       # Read request sizes (log2)
system.mem_ctrls2.readPktSize::3                    0                       # Read request sizes (log2)
system.mem_ctrls2.readPktSize::4                    0                       # Read request sizes (log2)
system.mem_ctrls2.readPktSize::5                    0                       # Read request sizes (log2)
system.mem_ctrls2.readPktSize::6                 5589                       # Read request sizes (log2)
system.mem_ctrls2.writePktSize::0                   0                       # Write request sizes (log2)
system.mem_ctrls2.writePktSize::1                   0                       # Write request sizes (log2)
system.mem_ctrls2.writePktSize::2                   0                       # Write request sizes (log2)
system.mem_ctrls2.writePktSize::3                   0                       # Write request sizes (log2)
[...]
system.ruby.L1Cache_Controller.E.Store::total       106328                      
system.ruby.L1Cache_Controller.E.Inv     |          20    100.00%    100.00% |           0      0.00%    100.00% |           0      0.00%    100.00% |           0      0.00%    100.00% |           0      0.00%    100.00% |           0      0.00%    100.00% |           0      0.00%    100.00% |           0      0.00%    100.00%
system.ruby.L1Cache_Controller.E.Inv::total           20                      
system.ruby.L1Cache_Controller.E.L1_Replacement |      413683    100.00%    100.00% |           0      0.00%    100.00% |           0      0.00%    100.00% |           0      0.00%    100.00% |           0      0.00%    100.00% |           0      0.00%    100.00% |           0      0.00%    100.00% |           0      0.00%    100.00%
system.ruby.L1Cache_Controller.E.L1_Replacement::total       413683                      
system.ruby.L1Cache_Controller.M.Load    |    44242496    100.00%    100.00% |           0      0.00%    100.00% |           0      0.00%    100.00% |           0      0.00%    100.00% |           0      0.00%    100.00% |           0      0.00%    100.00% |           0      0.00%    100.00% |           0      0.00%    100.00%
system.ruby.L1Cache_Controller.M.Load::total     44242496                      
system.ruby.L1Cache_Controller.M.Store   |    41181044    100.00%    100.00% |           0      0.00%    100.00% |           0      0.00%    100.00% |           0      0.00%    100.00% |           0      0.00%    100.00% |           0      0.00%    100.00% |           0      0.00%    100.00% |           0      0.00%    100.00%
system.ruby.L1Cache_Controller.M.Store::total     41181044                      
system.ruby.L1Cache_Controller.M.Inv     |         135    100.00%    100.00% |           0      0.00%    100.00% |           0      0.00%    100.00% |           0      0.00%    100.00% |           0      0.00%    100.00% |           0      0.00%    100.00% |           0      0.00%    100.00% |           0      0.00%    100.00%
system.ruby.L1Cache_Controller.M.Inv::total          135                      
system.ruby.L1Cache_Controller.M.L1_Replacement |      439497    100.00%    100.00% |           0      0.00%    100.00% |           0      0.00%    100.00% |           0      0.00%    100.00% |           0      0.00%    100.00% |           0      0.00%    100.00% |           0      0.00%    100.00% |           0      0.00%    100.00%
system.ruby.L1Cache_Controller.M.L1_Replacement::total       439497                      
system.ruby.L1Cache_Controller.IS.Data_Exclusive |      519961    100.00%    100.00% |           0      0.00%    100.00% |           0      0.00%    100.00% |           0      0.00%    100.00% |           0      0.00%    100.00% |           0      0.00%    100.00% |           0      0.00%    100.00% |           0      0.00%    100.00%
system.ruby.L1Cache_Controller.IS.Data_Exclusive::total       519961                      
system.ruby.L1Cache_Controller.IS.Data_all_Acks |      777974    100.00%    100.00% |           0      0.00%    100.00% |           0      0.00%    100.00% |           0      0.00%    100.00% |           0      0.00%    100.00% |           0      0.00%    100.00% |           0      0.00%    100.00% |           0      0.00%    100.00%
system.ruby.L1Cache_Controller.IS.Data_all_Acks::total       777974                      
system.ruby.L1Cache_Controller.IM.Data_all_Acks |      333373    100.00%    100.00% |           0      0.00%    100.00% |           0      0.00%    100.00% |           0      0.00%    100.00% |           0      0.00%    100.00% |           0      0.00%    100.00% |           0      0.00%    100.00% |           0      0.00%    100.00%
system.ruby.L1Cache_Controller.IM.Data_all_Acks::total       333373                      
system.ruby.L1Cache_Controller.M_I.Ifetch |           4    100.00%    100.00% |           0      0.00%    100.00% |           0      0.00%    100.00% |           0      0.00%    100.00% |           0      0.00%    100.00% |           0      0.00%    100.00% |           0      0.00%    100.00% |           0      0.00%    100.00%
system.ruby.L1Cache_Controller.M_I.Ifetch::total            4                      
system.ruby.L1Cache_Controller.M_I.WB_Ack |      853180    100.00%    100.00% |           0      0.00%    100.00% |           0      0.00%    100.00% |           0      0.00%    100.00% |           0      0.00%    100.00% |           0      0.00%    100.00% |           0      0.00%    100.00% |           0      0.00%    100.00%
system.ruby.L1Cache_Controller.M_I.WB_Ack::total       853180                      
system.ruby.L2Cache_Controller.L1_GET_INSTR |       62457      8.03%      8.03% |       58781      7.56%     15.59% |       55524      7.14%     22.72% |      157403     20.24%     42.96% |      155219     19.96%     62.92% |      164833     21.19%     84.11% |       67279      8.65%     92.76% |       56344      7.24%    100.00%
system.ruby.L2Cache_Controller.L1_GET_INSTR::total       777840                      
system.ruby.L2Cache_Controller.L1_GETS   |       76617     14.73%     14.73% |       65497     12.59%     27.32% |       65391     12.57%     39.90% |       63714     12.25%     52.15% |       62984     12.11%     64.26% |       61154     11.76%     76.02% |       59999     11.54%     87.55% |       64739     12.45%    100.00%
system.ruby.L2Cache_Controller.L1_GETS::total       520095                      
system.ruby.L2Cache_Controller.L1_GETX   |       42601     12.78%     12.78% |       41430     12.43%     25.21% |       41887     12.56%     37.77% |       41758     12.53%     50.30% |       40715     12.21%     62.51% |       43875     13.16%     75.67% |       40765     12.23%     87.90% |       40342     12.10%    100.00%
system.ruby.L2Cache_Controller.L1_GETX::total       333373                      
system.ruby.L2Cache_Controller.L1_PUTX   |      119080     13.96%     13.96% |      106922     12.53%     26.49% |      107190     12.56%     39.05% |      105438     12.36%     51.41% |      103694     12.15%     63.57% |      105024     12.31%     75.87% |      100754     11.81%     87.68% |      105078     12.32%    100.00%
system.ruby.L2Cache_Controller.L1_PUTX::total       853180                      
system.ruby.L2Cache_Controller.L2_Replacement |        4344     12.57%     12.57% |        4485     12.98%     25.56% |        4333     12.54%     38.10% |        4391     12.71%     50.81% |        4254     12.31%     63.12% |        4315     12.49%     75.61% |        4160     12.04%     87.65% |        4267     12.35%    100.00%
system.ruby.L2Cache_Controller.L2_Replacement::total        34549                      
system.ruby.L2Cache_Controller.L2_Replacement_clean |          97     13.13%     13.13% |          85     11.50%     24.63% |          87     11.77%     36.40% |          92     12.45%     48.85% |          99     13.40%     62.25% |          94     12.72%     74.97% |          90     12.18%     87.14% |          95     12.86%    100.00%
system.ruby.L2Cache_Controller.L2_Replacement_clean::total          739                      
system.ruby.L2Cache_Controller.Mem_Data  |        5734     12.83%     12.83% |        5616     12.57%     25.40% |        5589     12.51%     37.91% |        5562     12.45%     50.36% |        5539     12.40%     62.75% |        5541     12.40%     75.16% |        5551     12.42%     87.58% |        5550     12.42%    100.00%
system.ruby.L2Cache_Controller.Mem_Data::total        44682                      
system.ruby.L2Cache_Controller.Mem_Ack   |        4695     12.92%     12.92% |        4689     12.90%     25.83% |        4532     12.47%     38.30% |        4595     12.65%     50.94% |        4465     12.29%     63.23% |        4521     12.44%     75.67% |        4363     12.01%     87.68% |        4476     12.32%    100.00%
system.ruby.L2Cache_Controller.Mem_Ack::total        36336                      
system.ruby.L2Cache_Controller.WB_Data   |         135    100.00%    100.00% |           0      0.00%    100.00% |           0      0.00%    100.00% |           0      0.00%    100.00% |           0      0.00%    100.00% |           0      0.00%    100.00% |           0      0.00%    100.00% |           0      0.00%    100.00%
system.ruby.L2Cache_Controller.WB_Data::total          135                      
system.ruby.L2Cache_Controller.Ack_all   |          33     12.69%     12.69% |          31     11.92%     24.62% |          28     10.77%     35.38% |          34     13.08%     48.46% |          35     13.46%     61.92% |          34     13.08%     75.00% |          30     11.54%     86.54% |          35     13.46%    100.00%
system.ruby.L2Cache_Controller.Ack_all::total          260                      
system.ruby.L2Cache_Controller.Exclusive_Unblock |      119217     13.97%     13.97% |      106923     12.53%     26.50% |      107193     12.56%     39.06% |      105441     12.36%     51.42% |      103696     12.15%     63.57% |      105027     12.31%     75.88% |      100757     11.81%     87.69% |      105080     12.31%    100.00%
system.ruby.L2Cache_Controller.Exclusive_Unblock::total       853334                      
system.ruby.L2Cache_Controller.MEM_Inv   |         508     24.24%     24.24% |         238     11.35%     35.59% |         224     10.69%     46.28% |         224     10.69%     56.97% |         224     10.69%     67.65% |         224     10.69%     78.34% |         226     10.78%     89.12% |         228     10.88%    100.00%
system.ruby.L2Cache_Controller.MEM_Inv::total         2096                      
system.ruby.L2Cache_Controller.NP.L1_GET_INSTR |         380     12.22%     12.22% |         404     12.99%     25.21% |         408     13.12%     38.33% |         381     12.25%     50.58% |         369     11.86%     62.44% |         372     11.96%     74.41% |         397     12.77%     87.17% |         399     12.83%    100.00%
system.ruby.L2Cache_Controller.NP.L1_GET_INSTR::total         3110                      
system.ruby.L2Cache_Controller.NP.L1_GETS |        1117     12.95%     12.95% |        1100     12.75%     25.70% |        1076     12.48%     38.18% |        1076     12.48%     50.66% |        1090     12.64%     63.29% |        1064     12.34%     75.63% |        1049     12.16%     87.79% |        1053     12.21%    100.00%
system.ruby.L2Cache_Controller.NP.L1_GETS::total         8625                      
system.ruby.L2Cache_Controller.NP.L1_GETX |        4237     12.86%     12.86% |        4112     12.48%     25.34% |        4105     12.46%     37.80% |        4105     12.46%     50.26% |        4080     12.38%     62.64% |        4105     12.46%     75.10% |        4105     12.46%     87.56% |        4098     12.44%    100.00%
system.ruby.L2Cache_Controller.NP.L1_GETX::total        32947                      
system.ruby.L2Cache_Controller.SS.L1_GET_INSTR |       62076      8.01%      8.01% |       58377      7.54%     15.55% |       55113      7.11%     22.66% |      157022     20.27%     42.93% |      154849     19.99%     62.92% |      164459     21.23%     84.15% |       66880      8.63%     92.78% |       55945      7.22%    100.00%
system.ruby.L2Cache_Controller.SS.L1_GET_INSTR::total       774721                      
system.ruby.L2Cache_Controller.SS.L1_GETS |           1      0.75%      0.75% |           4      2.99%      3.73% |          85     63.43%     67.16% |          31     23.13%     90.30% |           3      2.24%     92.54% |           2      1.49%     94.03% |           7      5.22%     99.25% |           1      0.75%    100.00%
system.ruby.L2Cache_Controller.SS.L1_GETS::total          134                      
system.ruby.L2Cache_Controller.SS.L2_Replacement_clean |          31     12.92%     12.92% |          29     12.08%     25.00% |          25     10.42%     35.42% |          31     12.92%     48.33% |          33     13.75%     62.08% |          31     12.92%     75.00% |          27     11.25%     86.25% |          33     13.75%    100.00%
system.ruby.L2Cache_Controller.SS.L2_Replacement_clean::total          240                      
system.ruby.L2Cache_Controller.M.L1_GET_INSTR |           1     11.11%     11.11% |           0      0.00%     11.11% |           3     33.33%     44.44% |           0      0.00%     44.44% |           1     11.11%     55.56% |           2     22.22%     77.78% |           2     22.22%    100.00% |           0      0.00%    100.00%
system.ruby.L2Cache_Controller.M.L1_GET_INSTR::total            9                      
system.ruby.L2Cache_Controller.M.L1_GETS |       75499     14.77%     14.77% |       64393     12.59%     27.36% |       64230     12.56%     39.92% |       62607     12.24%     52.16% |       61891     12.10%     64.27% |       60088     11.75%     76.02% |       58943     11.53%     87.55% |       63685     12.45%    100.00%
system.ruby.L2Cache_Controller.M.L1_GETS::total       511336                      
system.ruby.L2Cache_Controller.M.L1_GETX |       38364     12.77%     12.77% |       37318     12.42%     25.19% |       37782     12.58%     37.77% |       37653     12.53%     50.30% |       36635     12.19%     62.50% |       39770     13.24%     75.73% |       36660     12.20%     87.94% |       36244     12.06%    100.00%
system.ruby.L2Cache_Controller.M.L1_GETX::total       300426                      
system.ruby.L2Cache_Controller.M.L2_Replacement |        4344     12.57%     12.57% |        4485     12.98%     25.56% |        4333     12.54%     38.10% |        4391     12.71%     50.81% |        4254     12.31%     63.12% |        4315     12.49%     75.61% |        4160     12.04%     87.65% |        4267     12.35%    100.00%
system.ruby.L2Cache_Controller.M.L2_Replacement::total        34549                      
system.ruby.L2Cache_Controller.M.L2_Replacement_clean |          66     13.23%     13.23% |          56     11.22%     24.45% |          62     12.42%     36.87% |          61     12.22%     49.10% |          66     13.23%     62.32% |          63     12.63%     74.95% |          63     12.63%     87.58% |          62     12.42%    100.00%
system.ruby.L2Cache_Controller.M.L2_Replacement_clean::total          499                      
system.ruby.L2Cache_Controller.M.MEM_Inv |         117     13.10%     13.10% |         117     13.10%     26.20% |         109     12.21%     38.41% |         109     12.21%     50.62% |         110     12.32%     62.93% |         109     12.21%     75.14% |         110     12.32%     87.46% |         112     12.54%    100.00%
system.ruby.L2Cache_Controller.M.MEM_Inv::total          893                      
system.ruby.L2Cache_Controller.MT.L1_PUTX |      119080     13.96%     13.96% |      106922     12.53%     26.49% |      107190     12.56%     39.05% |      105438     12.36%     51.41% |      103694     12.15%     63.57% |      105024     12.31%     75.87% |      100754     11.81%     87.68% |      105078     12.32%    100.00%
system.ruby.L2Cache_Controller.MT.L1_PUTX::total       853180                      
system.ruby.L2Cache_Controller.MT.MEM_Inv |         137     88.39%     88.39% |           2      1.29%     89.68% |           3      1.94%     91.61% |           3      1.94%     93.55% |           2      1.29%     94.84% |           3      1.94%     96.77% |           3      1.94%     98.71% |           2      1.29%    100.00%
system.ruby.L2Cache_Controller.MT.MEM_Inv::total          155                      
system.ruby.L2Cache_Controller.M_I.Mem_Ack |        4695     12.92%     12.92% |        4689     12.90%     25.83% |        4532     12.47%     38.30% |        4595     12.65%     50.94% |        4465     12.29%     63.23% |        4521     12.44%     75.67% |        4363     12.01%     87.68% |        4476     12.32%    100.00%
system.ruby.L2Cache_Controller.M_I.Mem_Ack::total        36336                      
system.ruby.L2Cache_Controller.M_I.MEM_Inv |         117     13.10%     13.10% |         117     13.10%     26.20% |         109     12.21%     38.41% |         109     12.21%     50.62% |         110     12.32%     62.93% |         109     12.21%     75.14% |         110     12.32%     87.46% |         112     12.54%    100.00%
system.ruby.L2Cache_Controller.M_I.MEM_Inv::total          893                      
system.ruby.L2Cache_Controller.MT_I.WB_Data |         135    100.00%    100.00% |           0      0.00%    100.00% |           0      0.00%    100.00% |           0      0.00%    100.00% |           0      0.00%    100.00% |           0      0.00%    100.00% |           0      0.00%    100.00% |           0      0.00%    100.00%
system.ruby.L2Cache_Controller.MT_I.WB_Data::total          135                      
system.ruby.L2Cache_Controller.MT_I.Ack_all |           2     10.00%     10.00% |           2     10.00%     20.00% |           3     15.00%     35.00% |           3     15.00%     50.00% |           2     10.00%     60.00% |           3     15.00%     75.00% |           3     15.00%     90.00% |           2     10.00%    100.00%
system.ruby.L2Cache_Controller.MT_I.Ack_all::total           20                      
system.ruby.L2Cache_Controller.MT_I.MEM_Inv |         137     88.39%     88.39% |           2      1.29%     89.68% |           3      1.94%     91.61% |           3      1.94%     93.55% |           2      1.29%     94.84% |           3      1.94%     96.77% |           3      1.94%     98.71% |           2      1.29%    100.00%
system.ruby.L2Cache_Controller.MT_I.MEM_Inv::total          155                      
system.ruby.L2Cache_Controller.I_I.Ack_all |          31     12.92%     12.92% |          29     12.08%     25.00% |          25     10.42%     35.42% |          31     12.92%     48.33% |          33     13.75%     62.08% |          31     12.92%     75.00% |          27     11.25%     86.25% |          33     13.75%    100.00%
system.ruby.L2Cache_Controller.I_I.Ack_all::total          240                      
system.ruby.L2Cache_Controller.ISS.Mem_Data |        1117     12.95%     12.95% |        1100     12.75%     25.70% |        1076     12.48%     38.18% |        1076     12.48%     50.66% |        1090     12.64%     63.29% |        1064     12.34%     75.63% |        1049     12.16%     87.79% |        1053     12.21%    100.00%
system.ruby.L2Cache_Controller.ISS.Mem_Data::total         8625                      
system.ruby.L2Cache_Controller.IS.Mem_Data |         380     12.22%     12.22% |         404     12.99%     25.21% |         408     13.12%     38.33% |         381     12.25%     50.58% |         369     11.86%     62.44% |         372     11.96%     74.41% |         397     12.77%     87.17% |         399     12.83%    100.00%
system.ruby.L2Cache_Controller.IS.Mem_Data::total         3110                      
system.ruby.L2Cache_Controller.IM.Mem_Data |        4237     12.86%     12.86% |        4112     12.48%     25.34% |        4105     12.46%     37.80% |        4105     12.46%     50.26% |        4080     12.38%     62.64% |        4105     12.46%     75.10% |        4105     12.46%     87.56% |        4098     12.44%    100.00%
system.ruby.L2Cache_Controller.IM.Mem_Data::total        32947                      
system.ruby.L2Cache_Controller.MT_MB.Exclusive_Unblock |      119217     13.97%     13.97% |      106923     12.53%     26.50% |      107193     12.56%     39.06% |      105441     12.36%     51.42% |      103696     12.15%     63.57% |      105027     12.31%     75.88% |      100757     11.81%     87.69% |      105080     12.31%    100.00%
system.ruby.L2Cache_Controller.MT_MB.Exclusive_Unblock::total       853334                      

---------- End Simulation Statistics   ----------
