
---------- Begin Simulation Statistics ----------
sim_seconds                                  0.755241                       # Number of seconds simulated
sim_ticks                                755241191500                       # Number of ticks simulated
final_tick                               5975372818500                       # Number of ticks from beginning of simulation (restored from checkpoints and never reset)
sim_freq                                 1000000000000                       # Frequency of simulated ticks
host_inst_rate                                 597134                       # Simulator instruction rate (inst/s)
host_op_rate                                  1075155                       # Simulator op (including micro ops) rate (op/s)
host_tick_rate                              899640997                       # Simulator tick rate (ticks/s)
host_mem_usage                                1833640                       # Number of bytes of host memory used
host_seconds                                   839.49                       # Real time elapsed on the host
sim_insts                                   501288932                       # Number of instructions simulated
sim_ops                                     902584025                       # Number of ops (including micro ops) simulated
system.voltage_domain.voltage                       1                       # Voltage in Volts
system.clk_domain.clock                          1000                       # Clock period in ticks
system.mem_ctrls0.pwrStateResidencyTicks::UNDEFINED 5975372818500                       # Cumulative time (in ticks) in various power states
system.mem_ctrls0.bytes_read::ruby.dir_cntrl0      3917440                       # Number of bytes read from this memory
system.mem_ctrls0.bytes_read::total           3917440                       # Number of bytes read from this memory
system.mem_ctrls0.bytes_written::ruby.dir_cntrl0      3830912                       # Number of bytes written to this memory
system.mem_ctrls0.bytes_written::total        3830912                       # Number of bytes written to this memory
system.mem_ctrls0.num_reads::ruby.dir_cntrl0        61210                       # Number of read requests responded to by this memory
system.mem_ctrls0.num_reads::total              61210                       # Number of read requests responded to by this memory
system.mem_ctrls0.num_writes::ruby.dir_cntrl0        59858                       # Number of write requests responded to by this memory
system.mem_ctrls0.num_writes::total             59858                       # Number of write requests responded to by this memory
system.mem_ctrls0.bw_read::ruby.dir_cntrl0      5187005                       # Total read bandwidth from this memory (bytes/s)
system.mem_ctrls0.bw_read::total              5187005                       # Total read bandwidth from this memory (bytes/s)
system.mem_ctrls0.bw_write::ruby.dir_cntrl0      5072435                       # Write bandwidth from this memory (bytes/s)
system.mem_ctrls0.bw_write::total             5072435                       # Write bandwidth from this memory (bytes/s)
system.mem_ctrls0.bw_total::ruby.dir_cntrl0     10259440                       # Total bandwidth to/from this memory (bytes/s)
system.mem_ctrls0.bw_total::total            10259440                       # Total bandwidth to/from this memory (bytes/s)
system.mem_ctrls0.readReqs                      61210                       # Number of read requests accepted
system.mem_ctrls0.writeReqs                     59858                       # Number of write requests accepted
system.mem_ctrls0.readBursts                    61210                       # Number of DRAM read bursts, including those serviced by the write queue
system.mem_ctrls0.writeBursts                   59858                       # Number of DRAM write bursts, including those merged in the write queue
system.mem_ctrls0.bytesReadDRAM               3891584                       # Total number of bytes read from DRAM
system.mem_ctrls0.bytesReadWrQ                  25856                       # Total number of bytes read from write queue
system.mem_ctrls0.bytesWritten                3825344                       # Total number of bytes written to DRAM
system.mem_ctrls0.bytesReadSys                3917440                       # Total read bytes from the system interface side
system.mem_ctrls0.bytesWrittenSys             3830912                       # Total written bytes from the system interface side
system.mem_ctrls0.servicedByWrQ                   404                       # Number of DRAM read bursts serviced by the write queue
system.mem_ctrls0.mergedWrBursts                   99                       # Number of DRAM write bursts merged with an existing one
system.mem_ctrls0.neitherReadNorWriteReqs            0                       # Number of requests that are neither read nor write
system.mem_ctrls0.perBankRdBursts::0             3946                       # Per bank write bursts
system.mem_ctrls0.perBankRdBursts::1             3797                       # Per bank write bursts
system.mem_ctrls0.perBankRdBursts::2             3953                       # Per bank write bursts
system.mem_ctrls0.perBankRdBursts::3             3727                       # Per bank write bursts
system.mem_ctrls0.perBankRdBursts::4             3532                       # Per bank write bursts
system.mem_ctrls0.perBankRdBursts::5             4069                       # Per bank write bursts
system.mem_ctrls0.perBankRdBursts::6             3814                       # Per bank write bursts
system.mem_ctrls0.perBankRdBursts::7             3902                       # Per bank write bursts
system.mem_ctrls0.perBankRdBursts::8             3743                       # Per bank write bursts
system.mem_ctrls0.perBankRdBursts::9             3792                       # Per bank write bursts
system.mem_ctrls0.perBankRdBursts::10            3782                       # Per bank write bursts
system.mem_ctrls0.perBankRdBursts::11            3563                       # Per bank write bursts
system.mem_ctrls0.perBankRdBursts::12            3464                       # Per bank write bursts
system.mem_ctrls0.perBankRdBursts::13            3805                       # Per bank write bursts
system.mem_ctrls0.perBankRdBursts::14            3950                       # Per bank write bursts
system.mem_ctrls0.perBankRdBursts::15            3967                       # Per bank write bursts
system.mem_ctrls0.perBankWrBursts::0             3961                       # Per bank write bursts
system.mem_ctrls0.perBankWrBursts::1             3698                       # Per bank write bursts
system.mem_ctrls0.perBankWrBursts::2             3792                       # Per bank write bursts
system.mem_ctrls0.perBankWrBursts::3             3718                       # Per bank write bursts
system.mem_ctrls0.perBankWrBursts::4             3498                       # Per bank write bursts
system.mem_ctrls0.perBankWrBursts::5             3822                       # Per bank write bursts
system.mem_ctrls0.perBankWrBursts::6             3636                       # Per bank write bursts
system.mem_ctrls0.perBankWrBursts::7             3778                       # Per bank write bursts
system.mem_ctrls0.perBankWrBursts::8             3796                       # Per bank write bursts
system.mem_ctrls0.perBankWrBursts::9             3751                       # Per bank write bursts
system.mem_ctrls0.perBankWrBursts::10            3757                       # Per bank write bursts
system.mem_ctrls0.perBankWrBursts::11            3672                       # Per bank write bursts
system.mem_ctrls0.perBankWrBursts::12            3661                       # Per bank write bursts
system.mem_ctrls0.perBankWrBursts::13            3752                       # Per bank write bursts
system.mem_ctrls0.perBankWrBursts::14            3803                       # Per bank write bursts
system.mem_ctrls0.perBankWrBursts::15            3676                       # Per bank write bursts
system.mem_ctrls0.numRdRetry                        0                       # Number of times read queue was full causing retry
system.mem_ctrls0.numWrRetry                       43                       # Number of times write queue was full causing retry
system.mem_ctrls0.totGap                 756160296000                       # Total gap between requests
system.mem_ctrls0.readPktSize::0                    0                       # Read request sizes (log2)
system.mem_ctrls0.readPktSize::1                    0                       # Read request sizes (log2)
system.mem_ctrls0.readPktSize::2                    0                       # Read request sizes (log2)
system.mem_ctrls0.readPktSize::3                    0                       # Read request sizes (log2)
system.mem_ctrls0.readPktSize::4                    0                       # Read request sizes (log2)
system.mem_ctrls0.readPktSize::5                    0                       # Read request sizes (log2)
system.mem_ctrls0.readPktSize::6                61210                       # Read request sizes (log2)
system.mem_ctrls0.writePktSize::0                   0                       # Write request sizes (log2)
system.mem_ctrls0.writePktSize::1                   0                       # Write request sizes (log2)
system.mem_ctrls0.writePktSize::2                   0                       # Write request sizes (log2)
system.mem_ctrls0.writePktSize::3                   0                       # Write request sizes (log2)
system.mem_ctrls0.writePktSize::4                   0                       # Write request sizes (log2)
system.mem_ctrls0.writePktSize::5                   0                       # Write request sizes (log2)
system.mem_ctrls0.writePktSize::6               59858                       # Write request sizes (log2)
system.mem_ctrls0.rdQLenPdf::0                  60801                       # What read queue length does an incoming req see
system.mem_ctrls0.rdQLenPdf::1                      5                       # What read queue length does an incoming req see
system.mem_ctrls0.rdQLenPdf::2                      0                       # What read queue length does an incoming req see
system.mem_ctrls0.rdQLenPdf::3                      0                       # What read queue length does an incoming req see
system.mem_ctrls0.rdQLenPdf::4                      0                       # What read queue length does an incoming req see
system.mem_ctrls0.rdQLenPdf::5                      0                       # What read queue length does an incoming req see
system.mem_ctrls0.rdQLenPdf::6                      0                       # What read queue length does an incoming req see
system.mem_ctrls0.rdQLenPdf::7                      0                       # What read queue length does an incoming req see
system.mem_ctrls0.rdQLenPdf::8                      0                       # What read queue length does an incoming req see
system.mem_ctrls0.rdQLenPdf::9                      0                       # What read queue length does an incoming req see
system.mem_ctrls0.rdQLenPdf::10                     0                       # What read queue length does an incoming req see
system.mem_ctrls0.rdQLenPdf::11                     0                       # What read queue length does an incoming req see
system.mem_ctrls0.rdQLenPdf::12                     0                       # What read queue length does an incoming req see
system.mem_ctrls0.rdQLenPdf::13                     0                       # What read queue length does an incoming req see
system.mem_ctrls0.rdQLenPdf::14                     0                       # What read queue length does an incoming req see
system.mem_ctrls0.rdQLenPdf::15                     0                       # What read queue length does an incoming req see
system.mem_ctrls0.rdQLenPdf::16                     0                       # What read queue length does an incoming req see
system.mem_ctrls0.rdQLenPdf::17                     0                       # What read queue length does an incoming req see
system.mem_ctrls0.rdQLenPdf::18                     0                       # What read queue length does an incoming req see
system.mem_ctrls0.rdQLenPdf::19                     0                       # What read queue length does an incoming req see
system.mem_ctrls0.rdQLenPdf::20                     0                       # What read queue length does an incoming req see
system.mem_ctrls0.rdQLenPdf::21                     0                       # What read queue length does an incoming req see
system.mem_ctrls0.rdQLenPdf::22                     0                       # What read queue length does an incoming req see
system.mem_ctrls0.rdQLenPdf::23                     0                       # What read queue length does an incoming req see
system.mem_ctrls0.rdQLenPdf::24                     0                       # What read queue length does an incoming req see
system.mem_ctrls0.rdQLenPdf::25                     0                       # What read queue length does an incoming req see
system.mem_ctrls0.rdQLenPdf::26                     0                       # What read queue length does an incoming req see
system.mem_ctrls0.rdQLenPdf::27                     0                       # What read queue length does an incoming req see
system.mem_ctrls0.rdQLenPdf::28                     0                       # What read queue length does an incoming req see
system.mem_ctrls0.rdQLenPdf::29                     0                       # What read queue length does an incoming req see
system.mem_ctrls0.rdQLenPdf::30                     0                       # What read queue length does an incoming req see
system.mem_ctrls0.rdQLenPdf::31                     0                       # What read queue length does an incoming req see
system.mem_ctrls0.wrQLenPdf::0                      0                       # What write queue length does an incoming req see
system.mem_ctrls0.wrQLenPdf::1                      0                       # What write queue length does an incoming req see
system.mem_ctrls0.wrQLenPdf::2                      0                       # What write queue length does an incoming req see
system.mem_ctrls0.wrQLenPdf::3                      0                       # What write queue length does an incoming req see
system.mem_ctrls0.wrQLenPdf::4                      0                       # What write queue length does an incoming req see
system.mem_ctrls0.wrQLenPdf::5                      0                       # What write queue length does an incoming req see
system.mem_ctrls0.wrQLenPdf::6                      0                       # What write queue length does an incoming req see
system.mem_ctrls0.wrQLenPdf::7                      0                       # What write queue length does an incoming req see
system.mem_ctrls0.wrQLenPdf::8                      0                       # What write queue length does an incoming req see
system.mem_ctrls0.wrQLenPdf::9                      0                       # What write queue length does an incoming req see
system.mem_ctrls0.wrQLenPdf::10                     0                       # What write queue length does an incoming req see
system.mem_ctrls0.wrQLenPdf::11                     0                       # What write queue length does an incoming req see
system.mem_ctrls0.wrQLenPdf::12                     0                       # What write queue length does an incoming req see
system.mem_ctrls0.wrQLenPdf::13                     0                       # What write queue length does an incoming req see
system.mem_ctrls0.wrQLenPdf::14                     0                       # What write queue length does an incoming req see
system.mem_ctrls0.wrQLenPdf::15                   251                       # What write queue length does an incoming req see
system.mem_ctrls0.wrQLenPdf::16                   384                       # What write queue length does an incoming req see
system.mem_ctrls0.wrQLenPdf::17                  3456                       # What write queue length does an incoming req see
system.mem_ctrls0.wrQLenPdf::18                  3549                       # What write queue length does an incoming req see
system.mem_ctrls0.wrQLenPdf::19                  3623                       # What write queue length does an incoming req see
system.mem_ctrls0.wrQLenPdf::20                  3603                       # What write queue length does an incoming req see
system.mem_ctrls0.wrQLenPdf::21                  3595                       # What write queue length does an incoming req see
system.mem_ctrls0.wrQLenPdf::22                  3657                       # What write queue length does an incoming req see
system.mem_ctrls0.wrQLenPdf::23                  3660                       # What write queue length does an incoming req see
system.mem_ctrls0.wrQLenPdf::24                  3712                       # What write queue length does an incoming req see
system.mem_ctrls0.wrQLenPdf::25                  3789                       # What write queue length does an incoming req see
system.mem_ctrls0.wrQLenPdf::26                  3638                       # What write queue length does an incoming req see
system.mem_ctrls0.wrQLenPdf::27                  3619                       # What write queue length does an incoming req see
system.mem_ctrls0.wrQLenPdf::28                  3604                       # What write queue length does an incoming req see
system.mem_ctrls0.wrQLenPdf::29                  3556                       # What write queue length does an incoming req see
system.mem_ctrls0.wrQLenPdf::30                  3499                       # What write queue length does an incoming req see
system.mem_ctrls0.wrQLenPdf::31                  3464                       # What write queue length does an incoming req see
system.mem_ctrls0.wrQLenPdf::32                  3446                       # What write queue length does an incoming req see
system.mem_ctrls0.wrQLenPdf::33                   117                       # What write queue length does an incoming req see
system.mem_ctrls0.wrQLenPdf::34                   111                       # What write queue length does an incoming req see
system.mem_ctrls0.wrQLenPdf::35                    97                       # What write queue length does an incoming req see
system.mem_ctrls0.wrQLenPdf::36                    80                       # What write queue length does an incoming req see
system.mem_ctrls0.wrQLenPdf::37                    77                       # What write queue length does an incoming req see
system.mem_ctrls0.wrQLenPdf::38                    74                       # What write queue length does an incoming req see
system.mem_ctrls0.wrQLenPdf::39                    68                       # What write queue length does an incoming req see
system.mem_ctrls0.wrQLenPdf::40                    72                       # What write queue length does an incoming req see
system.mem_ctrls0.wrQLenPdf::41                    68                       # What write queue length does an incoming req see
system.mem_ctrls0.wrQLenPdf::42                    72                       # What write queue length does an incoming req see
system.mem_ctrls0.wrQLenPdf::43                    66                       # What write queue length does an incoming req see
system.mem_ctrls0.wrQLenPdf::44                    54                       # What write queue length does an incoming req see
system.mem_ctrls0.wrQLenPdf::45                    48                       # What write queue length does an incoming req see
system.mem_ctrls0.wrQLenPdf::46                    45                       # What write queue length does an incoming req see
system.mem_ctrls0.wrQLenPdf::47                    46                       # What write queue length does an incoming req see
system.mem_ctrls0.wrQLenPdf::48                    45                       # What write queue length does an incoming req see
system.mem_ctrls0.wrQLenPdf::49                    48                       # What write queue length does an incoming req see
system.mem_ctrls0.wrQLenPdf::50                    45                       # What write queue length does an incoming req see
system.mem_ctrls0.wrQLenPdf::51                    37                       # What write queue length does an incoming req see
system.mem_ctrls0.wrQLenPdf::52                    34                       # What write queue length does an incoming req see
system.mem_ctrls0.wrQLenPdf::53                    37                       # What write queue length does an incoming req see
system.mem_ctrls0.wrQLenPdf::54                    30                       # What write queue length does an incoming req see
system.mem_ctrls0.wrQLenPdf::55                    31                       # What write queue length does an incoming req see
system.mem_ctrls0.wrQLenPdf::56                    34                       # What write queue length does an incoming req see
system.mem_ctrls0.wrQLenPdf::57                    29                       # What write queue length does an incoming req see
system.mem_ctrls0.wrQLenPdf::58                    31                       # What write queue length does an incoming req see
system.mem_ctrls0.wrQLenPdf::59                    25                       # What write queue length does an incoming req see
system.mem_ctrls0.wrQLenPdf::60                    23                       # What write queue length does an incoming req see
system.mem_ctrls0.wrQLenPdf::61                    18                       # What write queue length does an incoming req see
system.mem_ctrls0.wrQLenPdf::62                    25                       # What write queue length does an incoming req see
system.mem_ctrls0.wrQLenPdf::63                    67                       # What write queue length does an incoming req see
system.mem_ctrls0.bytesPerActivate::samples        33871                       # Bytes accessed per row activation
system.mem_ctrls0.bytesPerActivate::mean   227.831006                       # Bytes accessed per row activation
system.mem_ctrls0.bytesPerActivate::gmean   163.637227                       # Bytes accessed per row activation
system.mem_ctrls0.bytesPerActivate::stdev   196.760166                       # Bytes accessed per row activation
system.mem_ctrls0.bytesPerActivate::0-127        11575     34.17%     34.17% # Bytes accessed per row activation
system.mem_ctrls0.bytesPerActivate::128-255         9000     26.57%     60.75% # Bytes accessed per row activation
system.mem_ctrls0.bytesPerActivate::256-383         5778     17.06%     77.80% # Bytes accessed per row activation
system.mem_ctrls0.bytesPerActivate::384-511         4484     13.24%     91.04% # Bytes accessed per row activation
system.mem_ctrls0.bytesPerActivate::512-639         1632      4.82%     95.86% # Bytes accessed per row activation
system.mem_ctrls0.bytesPerActivate::640-767          414      1.22%     97.08% # Bytes accessed per row activation
system.mem_ctrls0.bytesPerActivate::768-895          225      0.66%     97.75% # Bytes accessed per row activation
system.mem_ctrls0.bytesPerActivate::896-1023          163      0.48%     98.23% # Bytes accessed per row activation
system.mem_ctrls0.bytesPerActivate::1024-1151          600      1.77%    100.00% # Bytes accessed per row activation
system.mem_ctrls0.bytesPerActivate::total        33871                       # Bytes accessed per row activation
system.mem_ctrls0.rdPerTurnAround::samples         3382                       # Reads before turning the bus around for writes
system.mem_ctrls0.rdPerTurnAround::mean     17.984329                       # Reads before turning the bus around for writes
system.mem_ctrls0.rdPerTurnAround::stdev     8.470562                       # Reads before turning the bus around for writes
system.mem_ctrls0.rdPerTurnAround::0-7            292      8.63%      8.63% # Reads before turning the bus around for writes
system.mem_ctrls0.rdPerTurnAround::8-15            50      1.48%     10.11% # Reads before turning the bus around for writes
system.mem_ctrls0.rdPerTurnAround::16-23         2614     77.29%     87.40% # Reads before turning the bus around for writes
system.mem_ctrls0.rdPerTurnAround::24-31          304      8.99%     96.39% # Reads before turning the bus around for writes
system.mem_ctrls0.rdPerTurnAround::32-39           66      1.95%     98.34% # Reads before turning the bus around for writes
system.mem_ctrls0.rdPerTurnAround::40-47           26      0.77%     99.11% # Reads before turning the bus around for writes
system.mem_ctrls0.rdPerTurnAround::48-55           11      0.33%     99.44% # Reads before turning the bus around for writes
system.mem_ctrls0.rdPerTurnAround::56-63            6      0.18%     99.62% # Reads before turning the bus around for writes
system.mem_ctrls0.rdPerTurnAround::64-71            5      0.15%     99.76% # Reads before turning the bus around for writes
system.mem_ctrls0.rdPerTurnAround::72-79            4      0.12%     99.88% # Reads before turning the bus around for writes
system.mem_ctrls0.rdPerTurnAround::80-87            1      0.03%     99.91% # Reads before turning the bus around for writes
system.mem_ctrls0.rdPerTurnAround::88-95            1      0.03%     99.94% # Reads before turning the bus around for writes
system.mem_ctrls0.rdPerTurnAround::104-111            1      0.03%     99.97% # Reads before turning the bus around for writes
system.mem_ctrls0.rdPerTurnAround::168-175            1      0.03%    100.00% # Reads before turning the bus around for writes
system.mem_ctrls0.rdPerTurnAround::total         3382                       # Reads before turning the bus around for writes
system.mem_ctrls0.wrPerTurnAround::samples         3382                       # Writes before turning the bus around for reads
system.mem_ctrls0.wrPerTurnAround::mean     17.673270                       # Writes before turning the bus around for reads
system.mem_ctrls0.wrPerTurnAround::gmean    17.033997                       # Writes before turning the bus around for reads
system.mem_ctrls0.wrPerTurnAround::stdev     6.889330                       # Writes before turning the bus around for reads
system.mem_ctrls0.wrPerTurnAround::16-17         3082     91.13%     91.13% # Writes before turning the bus around for reads
system.mem_ctrls0.wrPerTurnAround::18-19           36      1.06%     92.19% # Writes before turning the bus around for reads
system.mem_ctrls0.wrPerTurnAround::20-21            9      0.27%     92.46% # Writes before turning the bus around for reads
system.mem_ctrls0.wrPerTurnAround::22-23            9      0.27%     92.73% # Writes before turning the bus around for reads
system.mem_ctrls0.wrPerTurnAround::24-25           27      0.80%     93.52% # Writes before turning the bus around for reads
system.mem_ctrls0.wrPerTurnAround::26-27           12      0.35%     93.88% # Writes before turning the bus around for reads
system.mem_ctrls0.wrPerTurnAround::28-29           41      1.21%     95.09% # Writes before turning the bus around for reads
system.mem_ctrls0.wrPerTurnAround::30-31           19      0.56%     95.65% # Writes before turning the bus around for reads
system.mem_ctrls0.wrPerTurnAround::32-33           23      0.68%     96.33% # Writes before turning the bus around for reads
system.mem_ctrls0.wrPerTurnAround::34-35            6      0.18%     96.51% # Writes before turning the bus around for reads
system.mem_ctrls0.wrPerTurnAround::36-37           16      0.47%     96.98% # Writes before turning the bus around for reads
system.mem_ctrls0.wrPerTurnAround::38-39           15      0.44%     97.43% # Writes before turning the bus around for reads
system.mem_ctrls0.wrPerTurnAround::40-41           13      0.38%     97.81% # Writes before turning the bus around for reads
system.mem_ctrls0.wrPerTurnAround::42-43            7      0.21%     98.02% # Writes before turning the bus around for reads
system.mem_ctrls0.wrPerTurnAround::44-45            5      0.15%     98.17% # Writes before turning the bus around for reads
system.mem_ctrls0.wrPerTurnAround::46-47            8      0.24%     98.40% # Writes before turning the bus around for reads
system.mem_ctrls0.wrPerTurnAround::48-49           21      0.62%     99.02% # Writes before turning the bus around for reads
system.mem_ctrls0.wrPerTurnAround::50-51            3      0.09%     99.11% # Writes before turning the bus around for reads
system.mem_ctrls0.wrPerTurnAround::52-53            1      0.03%     99.14% # Writes before turning the bus around for reads
system.mem_ctrls0.wrPerTurnAround::54-55            2      0.06%     99.20% # Writes before turning the bus around for reads
system.mem_ctrls0.wrPerTurnAround::56-57            9      0.27%     99.47% # Writes before turning the bus around for reads
system.mem_ctrls0.wrPerTurnAround::58-59            2      0.06%     99.53% # Writes before turning the bus around for reads
system.mem_ctrls0.wrPerTurnAround::62-63            1      0.03%     99.56% # Writes before turning the bus around for reads
system.mem_ctrls0.wrPerTurnAround::64-65            1      0.03%     99.59% # Writes before turning the bus around for reads
system.mem_ctrls0.wrPerTurnAround::66-67            3      0.09%     99.67% # Writes before turning the bus around for reads
system.mem_ctrls0.wrPerTurnAround::68-69            2      0.06%     99.73% # Writes before turning the bus around for reads
system.mem_ctrls0.wrPerTurnAround::70-71            3      0.09%     99.82% # Writes before turning the bus around for reads
system.mem_ctrls0.wrPerTurnAround::72-73            2      0.06%     99.88% # Writes before turning the bus around for reads
system.mem_ctrls0.wrPerTurnAround::88-89            1      0.03%     99.91% # Writes before turning the bus around for reads
system.mem_ctrls0.wrPerTurnAround::94-95            1      0.03%     99.94% # Writes before turning the bus around for reads
system.mem_ctrls0.wrPerTurnAround::104-105            1      0.03%     99.97% # Writes before turning the bus around for reads
system.mem_ctrls0.wrPerTurnAround::108-109            1      0.03%    100.00% # Writes before turning the bus around for reads
system.mem_ctrls0.wrPerTurnAround::total         3382                       # Writes before turning the bus around for reads
system.mem_ctrls0.totQLat                  3630997250                       # Total ticks spent queuing
system.mem_ctrls0.totMemAccLat             4771109750                       # Total ticks spent from burst creation until serviced by the DRAM
system.mem_ctrls0.totBusLat                 304030000                       # Total ticks spent in databus transfers
system.mem_ctrls0.avgQLat                    59714.46                       # Average queueing delay per DRAM burst
system.mem_ctrls0.avgBusLat                   5000.00                       # Average bus latency per DRAM burst
system.mem_ctrls0.avgMemAccLat               78464.46                       # Average memory access latency per DRAM burst
system.mem_ctrls0.avgRdBW                        5.15                       # Average DRAM read bandwidth in MiByte/s
system.mem_ctrls0.avgWrBW                        5.07                       # Average achieved write bandwidth in MiByte/s
system.mem_ctrls0.avgRdBWSys                     5.19                       # Average system read bandwidth in MiByte/s
system.mem_ctrls0.avgWrBWSys                     5.07                       # Average system write bandwidth in MiByte/s
system.mem_ctrls0.peakBW                     12800.00                       # Theoretical peak bandwidth in MiByte/s
system.mem_ctrls0.busUtil                        0.08                       # Data bus utilization in percentage
system.mem_ctrls0.busUtilRead                    0.04                       # Data bus utilization in percentage for reads
system.mem_ctrls0.busUtilWrite                   0.04                       # Data bus utilization in percentage for writes
system.mem_ctrls0.avgRdQLen                      1.00                       # Average read queue length when enqueuing
system.mem_ctrls0.avgWrQLen                     25.54                       # Average write queue length when enqueuing
system.mem_ctrls0.readRowHits                   43241                       # Number of row buffer hits during reads
system.mem_ctrls0.writeRowHits                  43464                       # Number of row buffer hits during writes
system.mem_ctrls0.readRowHitRate                71.11                       # Row buffer hit rate for reads
system.mem_ctrls0.writeRowHitRate               72.73                       # Row buffer hit rate for writes
system.mem_ctrls0.avgGap                   6245748.64                       # Average gap between requests
system.mem_ctrls0.pageHitRate                   71.92                       # Row buffer hit rate, read and write combined
system.mem_ctrls0_0.actEnergy               164512740                       # Energy for activate commands per rank (pJ)
system.mem_ctrls0_0.preEnergy                87436800                       # Energy for precharge commands per rank (pJ)
system.mem_ctrls0_0.readEnergy              341034960                       # Energy for read commands per rank (pJ)
system.mem_ctrls0_0.writeEnergy             178769340                       # Energy for write commands per rank (pJ)
system.mem_ctrls0_0.refreshEnergy        13138544640.000004                       # Energy for refresh commands per rank (pJ)
system.mem_ctrls0_0.actBackEnergy          4270499850                       # Energy for active background per rank (pJ)
system.mem_ctrls0_0.preBackEnergy           779727360                       # Energy for precharge background per rank (pJ)
system.mem_ctrls0_0.actPowerDownEnergy    32812048290                       # Energy for active power-down per rank (pJ)
system.mem_ctrls0_0.prePowerDownEnergy    18171026880                       # Energy for precharge power-down per rank (pJ)
system.mem_ctrls0_0.selfRefreshEnergy    1405453872285                       # Energy for self refresh per rank (pJ)
system.mem_ctrls0_0.totalEnergy          1475400807255                       # Total energy per rank (pJ)
system.mem_ctrls0_0.averagePower           246.913599                       # Core power per rank (mW)
system.mem_ctrls0_0.totalIdleTime        748310689250                       # Total Idle time Per DRAM Rank
system.mem_ctrls0_0.memoryStateTime::IDLE    964747250                       # Time in different power states
system.mem_ctrls0_0.memoryStateTime::REF   3535902000                       # Time in different power states
system.mem_ctrls0_0.memoryStateTime::SREF 673535153000                       # Time in different power states
system.mem_ctrls0_0.memoryStateTime::PRE_PDN  29906586000                       # Time in different power states
system.mem_ctrls0_0.memoryStateTime::ACT   3333411500                       # Time in different power states
system.mem_ctrls0_0.memoryStateTime::ACT_PDN  44874967250                       # Time in different power states
system.mem_ctrls0_1.actEnergy               151810680                       # Energy for activate commands per rank (pJ)
system.mem_ctrls0_1.preEnergy                80689290                       # Energy for precharge commands per rank (pJ)
system.mem_ctrls0_1.readEnergy              333880680                       # Energy for read commands per rank (pJ)
system.mem_ctrls0_1.writeEnergy             174833460                       # Energy for write commands per rank (pJ)
system.mem_ctrls0_1.refreshEnergy        12317385600.000002                       # Energy for refresh commands per rank (pJ)
system.mem_ctrls0_1.actBackEnergy          4219710000                       # Energy for active background per rank (pJ)
system.mem_ctrls0_1.preBackEnergy           702893280                       # Energy for precharge background per rank (pJ)
system.mem_ctrls0_1.actPowerDownEnergy    31150122090                       # Energy for active power-down per rank (pJ)
system.mem_ctrls0_1.prePowerDownEnergy    16901666880                       # Energy for precharge power-down per rank (pJ)
system.mem_ctrls0_1.selfRefreshEnergy    1406956738080                       # Energy for self refresh per rank (pJ)
system.mem_ctrls0_1.totalEnergy          1472993007330                       # Total energy per rank (pJ)
system.mem_ctrls0_1.averagePower           246.510645                       # Core power per rank (mW)
system.mem_ctrls0_1.totalIdleTime        750323042250                       # Total Idle time Per DRAM Rank
system.mem_ctrls0_1.memoryStateTime::IDLE    920922750                       # Time in different power states
system.mem_ctrls0_1.memoryStateTime::REF   3529536000                       # Time in different power states
system.mem_ctrls0_1.memoryStateTime::SREF 675878217250                       # Time in different power states
system.mem_ctrls0_1.memoryStateTime::PRE_PDN  30411388750                       # Time in different power states
system.mem_ctrls0_1.memoryStateTime::ACT   3477601000                       # Time in different power states
system.mem_ctrls0_1.memoryStateTime::ACT_PDN  44358761500                       # Time in different power states
system.mem_ctrls1.pwrStateResidencyTicks::UNDEFINED 5975372818500                       # Cumulative time (in ticks) in various power states
system.mem_ctrls1.bytes_read::ruby.dir_cntrl1      3890880                       # Number of bytes read from this memory
system.mem_ctrls1.bytes_read::total           3890880                       # Number of bytes read from this memory
system.mem_ctrls1.bytes_written::ruby.dir_cntrl1      3825216                       # Number of bytes written to this memory
system.mem_ctrls1.bytes_written::total        3825216                       # Number of bytes written to this memory
system.mem_ctrls1.num_reads::ruby.dir_cntrl1        60795                       # Number of read requests responded to by this memory
system.mem_ctrls1.num_reads::total              60795                       # Number of read requests responded to by this memory
system.mem_ctrls1.num_writes::ruby.dir_cntrl1        59769                       # Number of write requests responded to by this memory
system.mem_ctrls1.num_writes::total             59769                       # Number of write requests responded to by this memory
system.mem_ctrls1.bw_read::ruby.dir_cntrl1      5151838                       # Total read bandwidth from this memory (bytes/s)
system.mem_ctrls1.bw_read::total              5151838                       # Total read bandwidth from this memory (bytes/s)
system.mem_ctrls1.bw_write::ruby.dir_cntrl1      5064893                       # Write bandwidth from this memory (bytes/s)
system.mem_ctrls1.bw_write::total             5064893                       # Write bandwidth from this memory (bytes/s)
system.mem_ctrls1.bw_total::ruby.dir_cntrl1     10216731                       # Total bandwidth to/from this memory (bytes/s)
system.mem_ctrls1.bw_total::total            10216731                       # Total bandwidth to/from this memory (bytes/s)
system.mem_ctrls1.readReqs                      60795                       # Number of read requests accepted
system.mem_ctrls1.writeReqs                     59769                       # Number of write requests accepted
system.mem_ctrls1.readBursts                    60795                       # Number of DRAM read bursts, including those serviced by the write queue
system.mem_ctrls1.writeBursts                   59769                       # Number of DRAM write bursts, including those merged in the write queue
system.mem_ctrls1.bytesReadDRAM               3873344                       # Total number of bytes read from DRAM
system.mem_ctrls1.bytesReadWrQ                  17536                       # Total number of bytes read from write queue
system.mem_ctrls1.bytesWritten                3825216                       # Total number of bytes written to DRAM
system.mem_ctrls1.bytesReadSys                3890880                       # Total read bytes from the system interface side
system.mem_ctrls1.bytesWrittenSys             3825216                       # Total written bytes from the system interface side
system.mem_ctrls1.servicedByWrQ                   274                       # Number of DRAM read bursts serviced by the write queue
system.mem_ctrls1.mergedWrBursts                    0                       # Number of DRAM write bursts merged with an existing one
system.mem_ctrls1.neitherReadNorWriteReqs            0                       # Number of requests that are neither read nor write
system.mem_ctrls1.perBankRdBursts::0             3928                       # Per bank write bursts
system.mem_ctrls1.perBankRdBursts::1             3802                       # Per bank write bursts
system.mem_ctrls1.perBankRdBursts::2             3948                       # Per bank write bursts
system.mem_ctrls1.perBankRdBursts::3             3716                       # Per bank write bursts
system.mem_ctrls1.perBankRdBursts::4             3536                       # Per bank write bursts
system.mem_ctrls1.perBankRdBursts::5             3818                       # Per bank write bursts
system.mem_ctrls1.perBankRdBursts::6             3778                       # Per bank write bursts
system.mem_ctrls1.perBankRdBursts::7             3900                       # Per bank write bursts
system.mem_ctrls1.perBankRdBursts::8             3723                       # Per bank write bursts
system.mem_ctrls1.perBankRdBursts::9             3806                       # Per bank write bursts
system.mem_ctrls1.perBankRdBursts::10            3802                       # Per bank write bursts
system.mem_ctrls1.perBankRdBursts::11            3552                       # Per bank write bursts
system.mem_ctrls1.perBankRdBursts::12            3481                       # Per bank write bursts
system.mem_ctrls1.perBankRdBursts::13            3802                       # Per bank write bursts
system.mem_ctrls1.perBankRdBursts::14            3983                       # Per bank write bursts
system.mem_ctrls1.perBankRdBursts::15            3946                       # Per bank write bursts
system.mem_ctrls1.perBankWrBursts::0             3947                       # Per bank write bursts
system.mem_ctrls1.perBankWrBursts::1             3725                       # Per bank write bursts
system.mem_ctrls1.perBankWrBursts::2             3793                       # Per bank write bursts
system.mem_ctrls1.perBankWrBursts::3             3700                       # Per bank write bursts
system.mem_ctrls1.perBankWrBursts::4             3492                       # Per bank write bursts
system.mem_ctrls1.perBankWrBursts::5             3719                       # Per bank write bursts
system.mem_ctrls1.perBankWrBursts::6             3659                       # Per bank write bursts
system.mem_ctrls1.perBankWrBursts::7             3758                       # Per bank write bursts
system.mem_ctrls1.perBankWrBursts::8             3808                       # Per bank write bursts
system.mem_ctrls1.perBankWrBursts::9             3759                       # Per bank write bursts
system.mem_ctrls1.perBankWrBursts::10            3838                       # Per bank write bursts
system.mem_ctrls1.perBankWrBursts::11            3670                       # Per bank write bursts
system.mem_ctrls1.perBankWrBursts::12            3679                       # Per bank write bursts
system.mem_ctrls1.perBankWrBursts::13            3761                       # Per bank write bursts
system.mem_ctrls1.perBankWrBursts::14            3823                       # Per bank write bursts
system.mem_ctrls1.perBankWrBursts::15            3638                       # Per bank write bursts
system.mem_ctrls1.numRdRetry                        0                       # Number of times read queue was full causing retry
system.mem_ctrls1.numWrRetry                       92                       # Number of times write queue was full causing retry
system.mem_ctrls1.totGap                 758567157500                       # Total gap between requests
system.mem_ctrls1.readPktSize::0                    0                       # Read request sizes (log2)
system.mem_ctrls1.readPktSize::1                    0                       # Read request sizes (log2)
system.mem_ctrls1.readPktSize::2                    0                       # Read request sizes (log2)
system.mem_ctrls1.readPktSize::3                    0                       # Read request sizes (log2)
system.mem_ctrls1.readPktSize::4                    0                       # Read request sizes (log2)
system.mem_ctrls1.readPktSize::5                    0                       # Read request sizes (log2)
system.mem_ctrls1.readPktSize::6                60795                       # Read request sizes (log2)
system.mem_ctrls1.writePktSize::0                   0                       # Write request sizes (log2)
system.mem_ctrls1.writePktSize::1                   0                       # Write request sizes (log2)
system.mem_ctrls1.writePktSize::2                   0                       # Write request sizes (log2)
system.mem_ctrls1.writePktSize::3                   0                       # Write request sizes (log2)
system.mem_ctrls1.writePktSize::4                   0                       # Write request sizes (log2)
system.mem_ctrls1.writePktSize::5                   0                       # Write request sizes (log2)
system.mem_ctrls1.writePktSize::6               59769                       # Write request sizes (log2)
system.mem_ctrls1.rdQLenPdf::0                  60521                       # What read queue length does an incoming req see
system.mem_ctrls1.rdQLenPdf::1                      0                       # What read queue length does an incoming req see
system.mem_ctrls1.rdQLenPdf::2                      0                       # What read queue length does an incoming req see
system.mem_ctrls1.rdQLenPdf::3                      0                       # What read queue length does an incoming req see
system.mem_ctrls1.rdQLenPdf::4                      0                       # What read queue length does an incoming req see
system.mem_ctrls1.rdQLenPdf::5                      0                       # What read queue length does an incoming req see
system.mem_ctrls1.rdQLenPdf::6                      0                       # What read queue length does an incoming req see
system.mem_ctrls1.rdQLenPdf::7                      0                       # What read queue length does an incoming req see
system.mem_ctrls1.rdQLenPdf::8                      0                       # What read queue length does an incoming req see
system.mem_ctrls1.rdQLenPdf::9                      0                       # What read queue length does an incoming req see
system.mem_ctrls1.rdQLenPdf::10                     0                       # What read queue length does an incoming req see
system.mem_ctrls1.rdQLenPdf::11                     0                       # What read queue length does an incoming req see
system.mem_ctrls1.rdQLenPdf::12                     0                       # What read queue length does an incoming req see
system.mem_ctrls1.rdQLenPdf::13                     0                       # What read queue length does an incoming req see
system.mem_ctrls1.rdQLenPdf::14                     0                       # What read queue length does an incoming req see
system.mem_ctrls1.rdQLenPdf::15                     0                       # What read queue length does an incoming req see
system.mem_ctrls1.rdQLenPdf::16                     0                       # What read queue length does an incoming req see
system.mem_ctrls1.rdQLenPdf::17                     0                       # What read queue length does an incoming req see
system.mem_ctrls1.rdQLenPdf::18                     0                       # What read queue length does an incoming req see
system.mem_ctrls1.rdQLenPdf::19                     0                       # What read queue length does an incoming req see
system.mem_ctrls1.rdQLenPdf::20                     0                       # What read queue length does an incoming req see
system.mem_ctrls1.rdQLenPdf::21                     0                       # What read queue length does an incoming req see
system.mem_ctrls1.rdQLenPdf::22                     0                       # What read queue length does an incoming req see
system.mem_ctrls1.rdQLenPdf::23                     0                       # What read queue length does an incoming req see
system.mem_ctrls1.rdQLenPdf::24                     0                       # What read queue length does an incoming req see
system.mem_ctrls1.rdQLenPdf::25                     0                       # What read queue length does an incoming req see
system.mem_ctrls1.rdQLenPdf::26                     0                       # What read queue length does an incoming req see
system.mem_ctrls1.rdQLenPdf::27                     0                       # What read queue length does an incoming req see
system.mem_ctrls1.rdQLenPdf::28                     0                       # What read queue length does an incoming req see
system.mem_ctrls1.rdQLenPdf::29                     0                       # What read queue length does an incoming req see
system.mem_ctrls1.rdQLenPdf::30                     0                       # What read queue length does an incoming req see
system.mem_ctrls1.rdQLenPdf::31                     0                       # What read queue length does an incoming req see
system.mem_ctrls1.wrQLenPdf::0                      0                       # What write queue length does an incoming req see
system.mem_ctrls1.wrQLenPdf::1                      0                       # What write queue length does an incoming req see
system.mem_ctrls1.wrQLenPdf::2                      0                       # What write queue length does an incoming req see
system.mem_ctrls1.wrQLenPdf::3                      0                       # What write queue length does an incoming req see
system.mem_ctrls1.wrQLenPdf::4                      0                       # What write queue length does an incoming req see
system.mem_ctrls1.wrQLenPdf::5                      0                       # What write queue length does an incoming req see
system.mem_ctrls1.wrQLenPdf::6                      0                       # What write queue length does an incoming req see
system.mem_ctrls1.wrQLenPdf::7                      0                       # What write queue length does an incoming req see
system.mem_ctrls1.wrQLenPdf::8                      0                       # What write queue length does an incoming req see
system.mem_ctrls1.wrQLenPdf::9                      0                       # What write queue length does an incoming req see
system.mem_ctrls1.wrQLenPdf::10                     0                       # What write queue length does an incoming req see
system.mem_ctrls1.wrQLenPdf::11                     0                       # What write queue length does an incoming req see
system.mem_ctrls1.wrQLenPdf::12                     0                       # What write queue length does an incoming req see
system.mem_ctrls1.wrQLenPdf::13                     0                       # What write queue length does an incoming req see
system.mem_ctrls1.wrQLenPdf::14                     0                       # What write queue length does an incoming req see
system.mem_ctrls1.wrQLenPdf::15                   277                       # What write queue length does an incoming req see
system.mem_ctrls1.wrQLenPdf::16                   405                       # What write queue length does an incoming req see
system.mem_ctrls1.wrQLenPdf::17                  3465                       # What write queue length does an incoming req see
system.mem_ctrls1.wrQLenPdf::18                  3550                       # What write queue length does an incoming req see
system.mem_ctrls1.wrQLenPdf::19                  3621                       # What write queue length does an incoming req see
system.mem_ctrls1.wrQLenPdf::20                  3593                       # What write queue length does an incoming req see
system.mem_ctrls1.wrQLenPdf::21                  3553                       # What write queue length does an incoming req see
system.mem_ctrls1.wrQLenPdf::22                  3641                       # What write queue length does an incoming req see
system.mem_ctrls1.wrQLenPdf::23                  3589                       # What write queue length does an incoming req see
system.mem_ctrls1.wrQLenPdf::24                  3689                       # What write queue length does an incoming req see
system.mem_ctrls1.wrQLenPdf::25                  3773                       # What write queue length does an incoming req see
system.mem_ctrls1.wrQLenPdf::26                  3549                       # What write queue length does an incoming req see
system.mem_ctrls1.wrQLenPdf::27                  3482                       # What write queue length does an incoming req see
system.mem_ctrls1.wrQLenPdf::28                  3465                       # What write queue length does an incoming req see
system.mem_ctrls1.wrQLenPdf::29                  3449                       # What write queue length does an incoming req see
system.mem_ctrls1.wrQLenPdf::30                  3407                       # What write queue length does an incoming req see
system.mem_ctrls1.wrQLenPdf::31                  3376                       # What write queue length does an incoming req see
system.mem_ctrls1.wrQLenPdf::32                  3371                       # What write queue length does an incoming req see
system.mem_ctrls1.wrQLenPdf::33                   104                       # What write queue length does an incoming req see
system.mem_ctrls1.wrQLenPdf::34                   101                       # What write queue length does an incoming req see
system.mem_ctrls1.wrQLenPdf::35                   102                       # What write queue length does an incoming req see
system.mem_ctrls1.wrQLenPdf::36                    95                       # What write queue length does an incoming req see
system.mem_ctrls1.wrQLenPdf::37                    97                       # What write queue length does an incoming req see
system.mem_ctrls1.wrQLenPdf::38                    97                       # What write queue length does an incoming req see
system.mem_ctrls1.wrQLenPdf::39                    92                       # What write queue length does an incoming req see
system.mem_ctrls1.wrQLenPdf::40                    87                       # What write queue length does an incoming req see
system.mem_ctrls1.wrQLenPdf::41                    78                       # What write queue length does an incoming req see
system.mem_ctrls1.wrQLenPdf::42                    81                       # What write queue length does an incoming req see
system.mem_ctrls1.wrQLenPdf::43                    81                       # What write queue length does an incoming req see
system.mem_ctrls1.wrQLenPdf::44                    82                       # What write queue length does an incoming req see
system.mem_ctrls1.wrQLenPdf::45                    84                       # What write queue length does an incoming req see
system.mem_ctrls1.wrQLenPdf::46                    88                       # What write queue length does an incoming req see
system.mem_ctrls1.wrQLenPdf::47                    83                       # What write queue length does an incoming req see
system.mem_ctrls1.wrQLenPdf::48                    75                       # What write queue length does an incoming req see
system.mem_ctrls1.wrQLenPdf::49                    76                       # What write queue length does an incoming req see
system.mem_ctrls1.wrQLenPdf::50                    74                       # What write queue length does an incoming req see
system.mem_ctrls1.wrQLenPdf::51                    77                       # What write queue length does an incoming req see
system.mem_ctrls1.wrQLenPdf::52                    68                       # What write queue length does an incoming req see
system.mem_ctrls1.wrQLenPdf::53                    69                       # What write queue length does an incoming req see
system.mem_ctrls1.wrQLenPdf::54                    70                       # What write queue length does an incoming req see
system.mem_ctrls1.wrQLenPdf::55                    74                       # What write queue length does an incoming req see
system.mem_ctrls1.wrQLenPdf::56                    68                       # What write queue length does an incoming req see
system.mem_ctrls1.wrQLenPdf::57                    66                       # What write queue length does an incoming req see
system.mem_ctrls1.wrQLenPdf::58                    72                       # What write queue length does an incoming req see
system.mem_ctrls1.wrQLenPdf::59                    66                       # What write queue length does an incoming req see
system.mem_ctrls1.wrQLenPdf::60                    50                       # What write queue length does an incoming req see
system.mem_ctrls1.wrQLenPdf::61                    43                       # What write queue length does an incoming req see
system.mem_ctrls1.wrQLenPdf::62                    64                       # What write queue length does an incoming req see
system.mem_ctrls1.wrQLenPdf::63                   150                       # What write queue length does an incoming req see
system.mem_ctrls1.bytesPerActivate::samples        33311                       # Bytes accessed per row activation
system.mem_ctrls1.bytesPerActivate::mean   231.111645                       # Bytes accessed per row activation
system.mem_ctrls1.bytesPerActivate::gmean   165.664444                       # Bytes accessed per row activation
system.mem_ctrls1.bytesPerActivate::stdev   198.979691                       # Bytes accessed per row activation
system.mem_ctrls1.bytesPerActivate::0-127        11250     33.77%     33.77% # Bytes accessed per row activation
system.mem_ctrls1.bytesPerActivate::128-255         8718     26.17%     59.94% # Bytes accessed per row activation
system.mem_ctrls1.bytesPerActivate::256-383         5615     16.86%     76.80% # Bytes accessed per row activation
system.mem_ctrls1.bytesPerActivate::384-511         4647     13.95%     90.75% # Bytes accessed per row activation
system.mem_ctrls1.bytesPerActivate::512-639         1675      5.03%     95.78% # Bytes accessed per row activation
system.mem_ctrls1.bytesPerActivate::640-767          379      1.14%     96.92% # Bytes accessed per row activation
system.mem_ctrls1.bytesPerActivate::768-895          233      0.70%     97.62% # Bytes accessed per row activation
system.mem_ctrls1.bytesPerActivate::896-1023          209      0.63%     98.24% # Bytes accessed per row activation
system.mem_ctrls1.bytesPerActivate::1024-1151          585      1.76%    100.00% # Bytes accessed per row activation
system.mem_ctrls1.bytesPerActivate::total        33311                       # Bytes accessed per row activation
system.mem_ctrls1.rdPerTurnAround::samples         3367                       # Reads before turning the bus around for writes
system.mem_ctrls1.rdPerTurnAround::mean     17.976240                       # Reads before turning the bus around for writes
system.mem_ctrls1.rdPerTurnAround::stdev     8.331552                       # Reads before turning the bus around for writes
system.mem_ctrls1.rdPerTurnAround::0-3            252      7.48%      7.48% # Reads before turning the bus around for writes
system.mem_ctrls1.rdPerTurnAround::4-7             26      0.77%      8.26% # Reads before turning the bus around for writes
system.mem_ctrls1.rdPerTurnAround::8-11            27      0.80%      9.06% # Reads before turning the bus around for writes
system.mem_ctrls1.rdPerTurnAround::12-15           22      0.65%      9.71% # Reads before turning the bus around for writes
system.mem_ctrls1.rdPerTurnAround::16-19         2133     63.35%     73.06% # Reads before turning the bus around for writes
system.mem_ctrls1.rdPerTurnAround::20-23          492     14.61%     87.67% # Reads before turning the bus around for writes
system.mem_ctrls1.rdPerTurnAround::24-27          204      6.06%     93.73% # Reads before turning the bus around for writes
system.mem_ctrls1.rdPerTurnAround::28-31           90      2.67%     96.41% # Reads before turning the bus around for writes
system.mem_ctrls1.rdPerTurnAround::32-35           36      1.07%     97.48% # Reads before turning the bus around for writes
system.mem_ctrls1.rdPerTurnAround::36-39           26      0.77%     98.25% # Reads before turning the bus around for writes
system.mem_ctrls1.rdPerTurnAround::40-43           18      0.53%     98.78% # Reads before turning the bus around for writes
system.mem_ctrls1.rdPerTurnAround::44-47           13      0.39%     99.17% # Reads before turning the bus around for writes
system.mem_ctrls1.rdPerTurnAround::48-51            7      0.21%     99.38% # Reads before turning the bus around for writes
system.mem_ctrls1.rdPerTurnAround::52-55            3      0.09%     99.47% # Reads before turning the bus around for writes
system.mem_ctrls1.rdPerTurnAround::56-59            2      0.06%     99.52% # Reads before turning the bus around for writes
system.mem_ctrls1.rdPerTurnAround::60-63            2      0.06%     99.58% # Reads before turning the bus around for writes
system.mem_ctrls1.rdPerTurnAround::64-67            2      0.06%     99.64% # Reads before turning the bus around for writes
system.mem_ctrls1.rdPerTurnAround::68-71            3      0.09%     99.73% # Reads before turning the bus around for writes
system.mem_ctrls1.rdPerTurnAround::72-75            3      0.09%     99.82% # Reads before turning the bus around for writes
system.mem_ctrls1.rdPerTurnAround::80-83            2      0.06%     99.88% # Reads before turning the bus around for writes
system.mem_ctrls1.rdPerTurnAround::84-87            1      0.03%     99.91% # Reads before turning the bus around for writes
system.mem_ctrls1.rdPerTurnAround::96-99            1      0.03%     99.94% # Reads before turning the bus around for writes
system.mem_ctrls1.rdPerTurnAround::116-119            1      0.03%     99.97% # Reads before turning the bus around for writes
system.mem_ctrls1.rdPerTurnAround::124-127            1      0.03%    100.00% # Reads before turning the bus around for writes
system.mem_ctrls1.rdPerTurnAround::total         3367                       # Reads before turning the bus around for writes
system.mem_ctrls1.wrPerTurnAround::samples         3367                       # Writes before turning the bus around for reads
system.mem_ctrls1.wrPerTurnAround::mean     17.751411                       # Writes before turning the bus around for reads
system.mem_ctrls1.wrPerTurnAround::gmean    17.050361                       # Writes before turning the bus around for reads
system.mem_ctrls1.wrPerTurnAround::stdev     7.469107                       # Writes before turning the bus around for reads
system.mem_ctrls1.wrPerTurnAround::16-17         3078     91.42%     91.42% # Writes before turning the bus around for reads
system.mem_ctrls1.wrPerTurnAround::18-19           31      0.92%     92.34% # Writes before turning the bus around for reads
system.mem_ctrls1.wrPerTurnAround::20-21            8      0.24%     92.57% # Writes before turning the bus around for reads
system.mem_ctrls1.wrPerTurnAround::22-23            6      0.18%     92.75% # Writes before turning the bus around for reads
system.mem_ctrls1.wrPerTurnAround::24-25           18      0.53%     93.29% # Writes before turning the bus around for reads
system.mem_ctrls1.wrPerTurnAround::26-27           13      0.39%     93.67% # Writes before turning the bus around for reads
system.mem_ctrls1.wrPerTurnAround::28-29           43      1.28%     94.95% # Writes before turning the bus around for reads
system.mem_ctrls1.wrPerTurnAround::30-31            9      0.27%     95.22% # Writes before turning the bus around for reads
system.mem_ctrls1.wrPerTurnAround::32-33           32      0.95%     96.17% # Writes before turning the bus around for reads
system.mem_ctrls1.wrPerTurnAround::34-35           12      0.36%     96.53% # Writes before turning the bus around for reads
system.mem_ctrls1.wrPerTurnAround::36-37           21      0.62%     97.15% # Writes before turning the bus around for reads
system.mem_ctrls1.wrPerTurnAround::38-39            7      0.21%     97.36% # Writes before turning the bus around for reads
system.mem_ctrls1.wrPerTurnAround::40-41           17      0.50%     97.86% # Writes before turning the bus around for reads
system.mem_ctrls1.wrPerTurnAround::42-43            2      0.06%     97.92% # Writes before turning the bus around for reads
system.mem_ctrls1.wrPerTurnAround::44-45            6      0.18%     98.10% # Writes before turning the bus around for reads
system.mem_ctrls1.wrPerTurnAround::46-47            3      0.09%     98.19% # Writes before turning the bus around for reads
system.mem_ctrls1.wrPerTurnAround::48-49           26      0.77%     98.96% # Writes before turning the bus around for reads
system.mem_ctrls1.wrPerTurnAround::50-51            3      0.09%     99.05% # Writes before turning the bus around for reads
system.mem_ctrls1.wrPerTurnAround::54-55            3      0.09%     99.14% # Writes before turning the bus around for reads
system.mem_ctrls1.wrPerTurnAround::56-57            3      0.09%     99.23% # Writes before turning the bus around for reads
system.mem_ctrls1.wrPerTurnAround::60-61            3      0.09%     99.32% # Writes before turning the bus around for reads
system.mem_ctrls1.wrPerTurnAround::64-65            5      0.15%     99.47% # Writes before turning the bus around for reads
system.mem_ctrls1.wrPerTurnAround::66-67            2      0.06%     99.52% # Writes before turning the bus around for reads
system.mem_ctrls1.wrPerTurnAround::68-69            2      0.06%     99.58% # Writes before turning the bus around for reads
system.mem_ctrls1.wrPerTurnAround::72-73            2      0.06%     99.64% # Writes before turning the bus around for reads
system.mem_ctrls1.wrPerTurnAround::76-77            2      0.06%     99.70% # Writes before turning the bus around for reads
system.mem_ctrls1.wrPerTurnAround::78-79            2      0.06%     99.76% # Writes before turning the bus around for reads
system.mem_ctrls1.wrPerTurnAround::80-81            2      0.06%     99.82% # Writes before turning the bus around for reads
system.mem_ctrls1.wrPerTurnAround::92-93            1      0.03%     99.85% # Writes before turning the bus around for reads
system.mem_ctrls1.wrPerTurnAround::96-97            1      0.03%     99.88% # Writes before turning the bus around for reads
system.mem_ctrls1.wrPerTurnAround::102-103            1      0.03%     99.91% # Writes before turning the bus around for reads
system.mem_ctrls1.wrPerTurnAround::104-105            1      0.03%     99.94% # Writes before turning the bus around for reads
system.mem_ctrls1.wrPerTurnAround::108-109            1      0.03%     99.97% # Writes before turning the bus around for reads
system.mem_ctrls1.wrPerTurnAround::112-113            1      0.03%    100.00% # Writes before turning the bus around for reads
system.mem_ctrls1.wrPerTurnAround::total         3367                       # Writes before turning the bus around for reads
system.mem_ctrls1.totQLat                  3581219245                       # Total ticks spent queuing
system.mem_ctrls1.totMemAccLat             4715987995                       # Total ticks spent from burst creation until serviced by the DRAM
system.mem_ctrls1.totBusLat                 302605000                       # Total ticks spent in databus transfers
system.mem_ctrls1.avgQLat                    59173.17                       # Average queueing delay per DRAM burst
system.mem_ctrls1.avgBusLat                   5000.00                       # Average bus latency per DRAM burst
system.mem_ctrls1.avgMemAccLat               77923.17                       # Average memory access latency per DRAM burst
system.mem_ctrls1.avgRdBW                        5.13                       # Average DRAM read bandwidth in MiByte/s
system.mem_ctrls1.avgWrBW                        5.06                       # Average achieved write bandwidth in MiByte/s
system.mem_ctrls1.avgRdBWSys                     5.15                       # Average system read bandwidth in MiByte/s
system.mem_ctrls1.avgWrBWSys                     5.06                       # Average system write bandwidth in MiByte/s
system.mem_ctrls1.peakBW                     12800.00                       # Theoretical peak bandwidth in MiByte/s
system.mem_ctrls1.busUtil                        0.08                       # Data bus utilization in percentage
system.mem_ctrls1.busUtilRead                    0.04                       # Data bus utilization in percentage for reads
system.mem_ctrls1.busUtilWrite                   0.04                       # Data bus utilization in percentage for writes
system.mem_ctrls1.avgRdQLen                      1.00                       # Average read queue length when enqueuing
system.mem_ctrls1.avgWrQLen                     25.46                       # Average write queue length when enqueuing
system.mem_ctrls1.readRowHits                   43184                       # Number of row buffer hits during reads
system.mem_ctrls1.writeRowHits                  43795                       # Number of row buffer hits during writes
system.mem_ctrls1.readRowHitRate                71.35                       # Row buffer hit rate for reads
system.mem_ctrls1.writeRowHitRate               73.27                       # Row buffer hit rate for writes
system.mem_ctrls1.avgGap                   6291821.42                       # Average gap between requests
system.mem_ctrls1.pageHitRate                   72.31                       # Row buffer hit rate, read and write combined
system.mem_ctrls1_0.actEnergy               158572260                       # Energy for activate commands per rank (pJ)
system.mem_ctrls1_0.preEnergy                84283155                       # Energy for precharge commands per rank (pJ)
system.mem_ctrls1_0.readEnergy              338750160                       # Energy for read commands per rank (pJ)
system.mem_ctrls1_0.writeEnergy             177902820                       # Energy for write commands per rank (pJ)
system.mem_ctrls1_0.refreshEnergy        12890230080.000004                       # Energy for refresh commands per rank (pJ)
system.mem_ctrls1_0.actBackEnergy          4241792940                       # Energy for active background per rank (pJ)
system.mem_ctrls1_0.preBackEnergy           774660960                       # Energy for precharge background per rank (pJ)
system.mem_ctrls1_0.actPowerDownEnergy    32090323410                       # Energy for active power-down per rank (pJ)
system.mem_ctrls1_0.prePowerDownEnergy    17827368960                       # Energy for precharge power-down per rank (pJ)
system.mem_ctrls1_0.selfRefreshEnergy    1406021385930                       # Energy for self refresh per rank (pJ)
system.mem_ctrls1_0.totalEnergy          1474607139105                       # Total energy per rank (pJ)
system.mem_ctrls1_0.averagePower           246.780776                       # Core power per rank (mW)
system.mem_ctrls1_0.totalIdleTime        751000521750                       # Total Idle time Per DRAM Rank
system.mem_ctrls1_0.memoryStateTime::IDLE    962577500                       # Time in different power states
system.mem_ctrls1_0.memoryStateTime::REF   3509152000                       # Time in different power states
system.mem_ctrls1_0.memoryStateTime::SREF 677027239750                       # Time in different power states
system.mem_ctrls1_0.memoryStateTime::PRE_PDN  29930747000                       # Time in different power states
system.mem_ctrls1_0.memoryStateTime::ACT   3304587000                       # Time in different power states
system.mem_ctrls1_0.memoryStateTime::ACT_PDN  44049926500                       # Time in different power states
system.mem_ctrls1_1.actEnergy               152260500                       # Energy for activate commands per rank (pJ)
system.mem_ctrls1_1.preEnergy                80928375                       # Energy for precharge commands per rank (pJ)
system.mem_ctrls1_1.readEnergy              334259100                       # Energy for read commands per rank (pJ)
system.mem_ctrls1_1.writeEnergy             175334580                       # Energy for write commands per rank (pJ)
system.mem_ctrls1_1.refreshEnergy        12265755840.000002                       # Energy for refresh commands per rank (pJ)
system.mem_ctrls1_1.actBackEnergy          4202526210                       # Energy for active background per rank (pJ)
system.mem_ctrls1_1.preBackEnergy           698333760                       # Energy for precharge background per rank (pJ)
system.mem_ctrls1_1.actPowerDownEnergy    31219454610                       # Energy for active power-down per rank (pJ)
system.mem_ctrls1_1.prePowerDownEnergy    16653622080                       # Energy for precharge power-down per rank (pJ)
system.mem_ctrls1_1.selfRefreshEnergy    1407078535020                       # Energy for self refresh per rank (pJ)
system.mem_ctrls1_1.totalEnergy          1472863419165                       # Total energy per rank (pJ)
system.mem_ctrls1_1.averagePower           246.488958                       # Core power per rank (mW)
system.mem_ctrls1_1.totalIdleTime        750343079750                       # Total Idle time Per DRAM Rank
system.mem_ctrls1_1.memoryStateTime::IDLE    916104000                       # Time in different power states
system.mem_ctrls1_1.memoryStateTime::REF   3503368000                       # Time in different power states
system.mem_ctrls1_1.memoryStateTime::SREF 676502186500                       # Time in different power states
system.mem_ctrls1_1.memoryStateTime::PRE_PDN  29806403000                       # Time in different power states
system.mem_ctrls1_1.memoryStateTime::ACT   3385136250                       # Time in different power states
system.mem_ctrls1_1.memoryStateTime::ACT_PDN  44453578750                       # Time in different power states
system.mem_ctrls2.pwrStateResidencyTicks::UNDEFINED 5975372818500                       # Cumulative time (in ticks) in various power states
system.mem_ctrls2.bytes_read::ruby.dir_cntrl2      3887040                       # Number of bytes read from this memory
system.mem_ctrls2.bytes_read::total           3887040                       # Number of bytes read from this memory
system.mem_ctrls2.bytes_written::ruby.dir_cntrl2      3814144                       # Number of bytes written to this memory
system.mem_ctrls2.bytes_written::total        3814144                       # Number of bytes written to this memory
system.mem_ctrls2.num_reads::ruby.dir_cntrl2        60735                       # Number of read requests responded to by this memory
system.mem_ctrls2.num_reads::total              60735                       # Number of read requests responded to by this memory
system.mem_ctrls2.num_writes::ruby.dir_cntrl2        59596                       # Number of write requests responded to by this memory
system.mem_ctrls2.num_writes::total             59596                       # Number of write requests responded to by this memory
system.mem_ctrls2.bw_read::ruby.dir_cntrl2      5146753                       # Total read bandwidth from this memory (bytes/s)
system.mem_ctrls2.bw_read::total              5146753                       # Total read bandwidth from this memory (bytes/s)
system.mem_ctrls2.bw_write::ruby.dir_cntrl2      5050233                       # Write bandwidth from this memory (bytes/s)
system.mem_ctrls2.bw_write::total             5050233                       # Write bandwidth from this memory (bytes/s)
system.mem_ctrls2.bw_total::ruby.dir_cntrl2     10196986                       # Total bandwidth to/from this memory (bytes/s)
system.mem_ctrls2.bw_total::total            10196986                       # Total bandwidth to/from this memory (bytes/s)
system.mem_ctrls2.readReqs                      60735                       # Number of read requests accepted
system.mem_ctrls2.writeReqs                     59596                       # Number of write requests accepted
system.mem_ctrls2.readBursts                    60735                       # Number of DRAM read bursts, including those serviced by the write queue
system.mem_ctrls2.writeBursts                   59596                       # Number of DRAM write bursts, including those merged in the write queue
system.mem_ctrls2.bytesReadDRAM               3870848                       # Total number of bytes read from DRAM
system.mem_ctrls2.bytesReadWrQ                  16192                       # Total number of bytes read from write queue
system.mem_ctrls2.bytesWritten                3813888                       # Total number of bytes written to DRAM
system.mem_ctrls2.bytesReadSys                3887040                       # Total read bytes from the system interface side
system.mem_ctrls2.bytesWrittenSys             3814144                       # Total written bytes from the system interface side
system.mem_ctrls2.servicedByWrQ                   253                       # Number of DRAM read bursts serviced by the write queue
system.mem_ctrls2.mergedWrBursts                    0                       # Number of DRAM write bursts merged with an existing one
system.mem_ctrls2.neitherReadNorWriteReqs            0                       # Number of requests that are neither read nor write
system.mem_ctrls2.perBankRdBursts::0             3891                       # Per bank write bursts
system.mem_ctrls2.perBankRdBursts::1             3816                       # Per bank write bursts
system.mem_ctrls2.perBankRdBursts::2             3961                       # Per bank write bursts
system.mem_ctrls2.perBankRdBursts::3             3705                       # Per bank write bursts
system.mem_ctrls2.perBankRdBursts::4             3534                       # Per bank write bursts
system.mem_ctrls2.perBankRdBursts::5             3836                       # Per bank write bursts
system.mem_ctrls2.perBankRdBursts::6             3779                       # Per bank write bursts
system.mem_ctrls2.perBankRdBursts::7             3905                       # Per bank write bursts
system.mem_ctrls2.perBankRdBursts::8             3722                       # Per bank write bursts
system.mem_ctrls2.perBankRdBursts::9             3788                       # Per bank write bursts
system.mem_ctrls2.perBankRdBursts::10            3790                       # Per bank write bursts
system.mem_ctrls2.perBankRdBursts::11            3553                       # Per bank write bursts
system.mem_ctrls2.perBankRdBursts::12            3494                       # Per bank write bursts
[...]
system.ruby.L1Cache_Controller.E.Store::total       205300                      
system.ruby.L1Cache_Controller.E.L1_Replacement |     2509972    100.00%    100.00% |           0      0.00%    100.00% |           0      0.00%    100.00% |           0      0.00%    100.00% |           0      0.00%    100.00% |           0      0.00%    100.00% |           0      0.00%    100.00% |           0      0.00%    100.00%
system.ruby.L1Cache_Controller.E.L1_Replacement::total      2509972                      
system.ruby.L1Cache_Controller.M.Load    |    56595953    100.00%    100.00% |           0      0.00%    100.00% |           0      0.00%    100.00% |           0      0.00%    100.00% |           0      0.00%    100.00% |           0      0.00%    100.00% |           0      0.00%    100.00% |           0      0.00%    100.00%
system.ruby.L1Cache_Controller.M.Load::total     56595953                      
system.ruby.L1Cache_Controller.M.Store   |    42580327    100.00%    100.00% |           0      0.00%    100.00% |           0      0.00%    100.00% |           0      0.00%    100.00% |           0      0.00%    100.00% |           0      0.00%    100.00% |           0      0.00%    100.00% |           0      0.00%    100.00%
system.ruby.L1Cache_Controller.M.Store::total     42580327                      
system.ruby.L1Cache_Controller.M.Inv     |         220    100.00%    100.00% |           0      0.00%    100.00% |           0      0.00%    100.00% |           0      0.00%    100.00% |           0      0.00%    100.00% |           0      0.00%    100.00% |           0      0.00%    100.00% |           0      0.00%    100.00%
system.ruby.L1Cache_Controller.M.Inv::total          220                      
system.ruby.L1Cache_Controller.M.L1_Replacement |     1306613    100.00%    100.00% |           0      0.00%    100.00% |           0      0.00%    100.00% |           0      0.00%    100.00% |           0      0.00%    100.00% |           0      0.00%    100.00% |           0      0.00%    100.00% |           0      0.00%    100.00%
system.ruby.L1Cache_Controller.M.L1_Replacement::total      1306613                      
system.ruby.L1Cache_Controller.IS.Data_Exclusive |     2715263    100.00%    100.00% |           0      0.00%    100.00% |           0      0.00%    100.00% |           0      0.00%    100.00% |           0      0.00%    100.00% |           0      0.00%    100.00% |           0      0.00%    100.00% |           0      0.00%    100.00%
system.ruby.L1Cache_Controller.IS.Data_Exclusive::total      2715263                      
system.ruby.L1Cache_Controller.IS.Data_all_Acks |     3746616    100.00%    100.00% |           0      0.00%    100.00% |           0      0.00%    100.00% |           0      0.00%    100.00% |           0      0.00%    100.00% |           0      0.00%    100.00% |           0      0.00%    100.00% |           0      0.00%    100.00%
system.ruby.L1Cache_Controller.IS.Data_all_Acks::total      3746616                      
system.ruby.L1Cache_Controller.IM.Data_all_Acks |     1101542    100.00%    100.00% |           0      0.00%    100.00% |           0      0.00%    100.00% |           0      0.00%    100.00% |           0      0.00%    100.00% |           0      0.00%    100.00% |           0      0.00%    100.00% |           0      0.00%    100.00%
system.ruby.L1Cache_Controller.IM.Data_all_Acks::total      1101542                      
system.ruby.L1Cache_Controller.M_I.Ifetch |           7    100.00%    100.00% |           0      0.00%    100.00% |           0      0.00%    100.00% |           0      0.00%    100.00% |           0      0.00%    100.00% |           0      0.00%    100.00% |           0      0.00%    100.00% |           0      0.00%    100.00%
system.ruby.L1Cache_Controller.M_I.Ifetch::total            7                      
system.ruby.L1Cache_Controller.M_I.WB_Ack |     3816585    100.00%    100.00% |           0      0.00%    100.00% |           0      0.00%    100.00% |           0      0.00%    100.00% |           0      0.00%    100.00% |           0      0.00%    100.00% |           0      0.00%    100.00% |           0      0.00%    100.00%
system.ruby.L1Cache_Controller.M_I.WB_Ack::total      3816585                      
system.ruby.L2Cache_Controller.L1_GET_INSTR |      377275     10.07%     10.07% |      434098     11.59%     21.66% |      415841     11.10%     32.76% |      390521     10.42%     43.18% |      577752     15.42%     58.60% |      539496     14.40%     73.00% |      558048     14.90%     87.90% |      453466     12.10%    100.00%
system.ruby.L2Cache_Controller.L1_GET_INSTR::total      3746497                      
system.ruby.L2Cache_Controller.L1_GETS   |      367639     13.54%     13.54% |      342379     12.61%     26.15% |      352339     12.98%     39.12% |      335496     12.36%     51.48% |      317437     11.69%     63.17% |      343551     12.65%     75.82% |      322743     11.89%     87.71% |      333798     12.29%    100.00%
system.ruby.L2Cache_Controller.L1_GETS::total      2715382                      
system.ruby.L2Cache_Controller.L1_GETX   |      146071     13.26%     13.26% |      132524     12.03%     25.29% |      136855     12.42%     37.72% |      134886     12.25%     49.96% |      132706     12.05%     62.01% |      135940     12.34%     74.35% |      148107     13.45%     87.79% |      134453     12.21%    100.00%
system.ruby.L2Cache_Controller.L1_GETX::total      1101542                      
system.ruby.L2Cache_Controller.L1_PUTX   |      513491     13.45%     13.45% |      474902     12.44%     25.90% |      489113     12.82%     38.71% |      470354     12.32%     51.04% |      450141     11.79%     62.83% |      479490     12.56%     75.39% |      470844     12.34%     87.73% |      468250     12.27%    100.00%
system.ruby.L2Cache_Controller.L1_PUTX::total      3816585                      
system.ruby.L2Cache_Controller.L2_Replacement |       49425     12.51%     12.51% |       49555     12.54%     25.04% |       49382     12.49%     37.54% |       49601     12.55%     50.09% |       49347     12.49%     62.57% |       49445     12.51%     75.08% |       49220     12.45%     87.54% |       49256     12.46%    100.00%
system.ruby.L2Cache_Controller.L2_Replacement::total       395231                      
system.ruby.L2Cache_Controller.L2_Replacement_clean |        9940     12.70%     12.70% |        9886     12.63%     25.34% |        9805     12.53%     37.87% |        9696     12.39%     50.26% |        9740     12.45%     62.71% |        9693     12.39%     75.10% |        9720     12.42%     87.52% |        9767     12.48%    100.00%
system.ruby.L2Cache_Controller.L2_Replacement_clean::total        78247                      
system.ruby.L2Cache_Controller.Mem_Data  |       61086     12.57%     12.57% |       60795     12.51%     25.09% |       60735     12.50%     37.59% |       60676     12.49%     50.08% |       60629     12.48%     62.56% |       60606     12.48%     75.03% |       60676     12.49%     87.52% |       60611     12.48%    100.00%
system.ruby.L2Cache_Controller.Mem_Data::total       485814                      
system.ruby.L2Cache_Controller.Mem_Ack   |       59783     12.58%     12.58% |       59640     12.55%     25.13% |       59376     12.49%     37.62% |       59486     12.52%     50.14% |       59276     12.47%     62.61% |       59327     12.48%     75.10% |       59130     12.44%     87.54% |       59217     12.46%    100.00%
system.ruby.L2Cache_Controller.Mem_Ack::total       475235                      
system.ruby.L2Cache_Controller.WB_Data   |         219     99.55%     99.55% |           0      0.00%     99.55% |           0      0.00%     99.55% |           0      0.00%     99.55% |           1      0.45%    100.00% |           0      0.00%    100.00% |           0      0.00%    100.00% |           0      0.00%    100.00%
system.ruby.L2Cache_Controller.WB_Data::total          220                      
system.ruby.L2Cache_Controller.Ack_all   |        1710     12.76%     12.76% |        1692     12.63%     25.39% |        1651     12.32%     37.71% |        1619     12.08%     49.80% |        1652     12.33%     62.13% |        1656     12.36%     74.49% |        1698     12.67%     87.16% |        1720     12.84%    100.00%
system.ruby.L2Cache_Controller.Ack_all::total        13398                      
system.ruby.L2Cache_Controller.Exclusive_Unblock |      513710     13.46%     13.46% |      474901     12.44%     25.90% |      489113     12.81%     38.72% |      470355     12.32%     51.04% |      450142     11.79%     62.83% |      479490     12.56%     75.40% |      470844     12.34%     87.73% |      468250     12.27%    100.00%
system.ruby.L2Cache_Controller.Exclusive_Unblock::total      3816805                      
system.ruby.L2Cache_Controller.MEM_Inv   |         836     23.79%     23.79% |         398     11.33%     35.12% |         378     10.76%     45.87% |         378     10.76%     56.63% |         378     10.76%     67.39% |         378     10.76%     78.14% |         380     10.81%     88.96% |         388     11.04%    100.00%
system.ruby.L2Cache_Controller.MEM_Inv::total         3514                      
system.ruby.L2Cache_Controller.NP.L1_GET_INSTR |        1214     12.58%     12.58% |        1209     12.53%     25.11% |        1216     12.60%     37.71% |        1184     12.27%     49.97% |        1185     12.28%     62.25% |        1183     12.26%     74.51% |        1231     12.76%     87.27% |        1229     12.73%    100.00%
system.ruby.L2Cache_Controller.NP.L1_GET_INSTR::total         9651                      
system.ruby.L2Cache_Controller.NP.L1_GETS |       11229     12.87%     12.87% |       10854     12.44%     25.30% |       10903     12.49%     37.80% |       10984     12.59%     50.38% |       10803     12.38%     62.76% |       10913     12.50%     75.26% |       10932     12.53%     87.79% |       10657     12.21%    100.00%
system.ruby.L2Cache_Controller.NP.L1_GETS::total        87275                      
system.ruby.L2Cache_Controller.NP.L1_GETX |       48643     12.51%     12.51% |       48732     12.53%     25.04% |       48616     12.50%     37.54% |       48508     12.47%     50.01% |       48641     12.51%     62.52% |       48510     12.47%     75.00% |       48513     12.47%     87.47% |       48725     12.53%    100.00%
system.ruby.L2Cache_Controller.NP.L1_GETX::total       388888                      
system.ruby.L2Cache_Controller.SS.L1_GET_INSTR |      376060     10.06%     10.06% |      432886     11.58%     21.65% |      414619     11.10%     32.74% |      389336     10.42%     43.16% |      576565     15.43%     58.59% |      538310     14.41%     73.00% |      556814     14.90%     87.90% |      452237     12.10%    100.00%
system.ruby.L2Cache_Controller.SS.L1_GET_INSTR::total      3736827                      
system.ruby.L2Cache_Controller.SS.L1_GETS |           0      0.00%      0.00% |           2      1.68%      1.68% |          81     68.07%     69.75% |          27     22.69%     92.44% |           1      0.84%     93.28% |           1      0.84%     94.12% |           6      5.04%     99.16% |           1      0.84%    100.00%
system.ruby.L2Cache_Controller.SS.L1_GETS::total          119                      
system.ruby.L2Cache_Controller.SS.L2_Replacement |           0      0.00%      0.00% |           1     16.67%     16.67% |           0      0.00%     16.67% |           2     33.33%     50.00% |           1     16.67%     66.67% |           1     16.67%     83.33% |           1     16.67%    100.00% |           0      0.00%    100.00%
system.ruby.L2Cache_Controller.SS.L2_Replacement::total            6                      
system.ruby.L2Cache_Controller.SS.L2_Replacement_clean |        1710     12.77%     12.77% |        1691     12.63%     25.40% |        1651     12.33%     37.72% |        1617     12.07%     49.80% |        1651     12.33%     62.13% |        1655     12.36%     74.48% |        1697     12.67%     87.16% |        1720     12.84%    100.00%
system.ruby.L2Cache_Controller.SS.L2_Replacement_clean::total        13392                      
system.ruby.L2Cache_Controller.M.L1_GET_INSTR |           1      5.26%      5.26% |           3     15.79%     21.05% |           6     31.58%     52.63% |           1      5.26%     57.89% |           2     10.53%     68.42% |           3     15.79%     84.21% |           3     15.79%    100.00% |           0      0.00%    100.00%
system.ruby.L2Cache_Controller.M.L1_GET_INSTR::total           19                      
system.ruby.L2Cache_Controller.M.L1_GETS |      356410     13.56%     13.56% |      331523     12.62%     26.18% |      341355     12.99%     39.17% |      324485     12.35%     51.51% |      306633     11.67%     63.18% |      332637     12.66%     75.84% |      311805     11.86%     87.70% |      323140     12.30%    100.00%
system.ruby.L2Cache_Controller.M.L1_GETS::total      2627988                      
system.ruby.L2Cache_Controller.M.L1_GETX |       97428     13.67%     13.67% |       83792     11.76%     25.43% |       88239     12.38%     37.81% |       86378     12.12%     49.93% |       84065     11.80%     61.73% |       87430     12.27%     74.00% |       99594     13.98%     87.97% |       85728     12.03%    100.00%
system.ruby.L2Cache_Controller.M.L1_GETX::total       712654                      
system.ruby.L2Cache_Controller.M.L2_Replacement |       49425     12.51%     12.51% |       49554     12.54%     25.04% |       49382     12.49%     37.54% |       49599     12.55%     50.09% |       49346     12.49%     62.57% |       49444     12.51%     75.08% |       49219     12.45%     87.54% |       49256     12.46%    100.00%
system.ruby.L2Cache_Controller.M.L2_Replacement::total       395225                      
system.ruby.L2Cache_Controller.M.L2_Replacement_clean |        8230     12.69%     12.69% |        8195     12.64%     25.33% |        8154     12.57%     37.90% |        8079     12.46%     50.36% |        8089     12.47%     62.83% |        8038     12.39%     75.22% |        8023     12.37%     87.59% |        8047     12.41%    100.00%
system.ruby.L2Cache_Controller.M.L2_Replacement_clean::total        64855                      
system.ruby.L2Cache_Controller.M.MEM_Inv |         199     12.95%     12.95% |         199     12.95%     25.89% |         189     12.30%     38.19% |         189     12.30%     50.49% |         188     12.23%     62.72% |         189     12.30%     75.02% |         190     12.36%     87.38% |         194     12.62%    100.00%
system.ruby.L2Cache_Controller.M.MEM_Inv::total         1537                      
system.ruby.L2Cache_Controller.MT.L1_PUTX |      513491     13.45%     13.45% |      474902     12.44%     25.90% |      489113     12.82%     38.71% |      470354     12.32%     51.04% |      450141     11.79%     62.83% |      479490     12.56%     75.39% |      470844     12.34%     87.73% |      468250     12.27%    100.00%
system.ruby.L2Cache_Controller.MT.L1_PUTX::total      3816585                      
system.ruby.L2Cache_Controller.MT.MEM_Inv |         219     99.55%     99.55% |           0      0.00%     99.55% |           0      0.00%     99.55% |           0      0.00%     99.55% |           1      0.45%    100.00% |           0      0.00%    100.00% |           0      0.00%    100.00% |           0      0.00%    100.00%
system.ruby.L2Cache_Controller.MT.MEM_Inv::total          220                      
system.ruby.L2Cache_Controller.M_I.Mem_Ack |       59783     12.58%     12.58% |       59640     12.55%     25.13% |       59376     12.49%     37.62% |       59486     12.52%     50.14% |       59276     12.47%     62.61% |       59327     12.48%     75.10% |       59130     12.44%     87.54% |       59217     12.46%    100.00%
system.ruby.L2Cache_Controller.M_I.Mem_Ack::total       475235                      
system.ruby.L2Cache_Controller.M_I.MEM_Inv |         199     12.95%     12.95% |         199     12.95%     25.89% |         189     12.30%     38.19% |         189     12.30%     50.49% |         188     12.23%     62.72% |         189     12.30%     75.02% |         190     12.36%     87.38% |         194     12.62%    100.00%
system.ruby.L2Cache_Controller.M_I.MEM_Inv::total         1537                      
system.ruby.L2Cache_Controller.MT_I.WB_Data |         219     99.55%     99.55% |           0      0.00%     99.55% |           0      0.00%     99.55% |           0      0.00%     99.55% |           1      0.45%    100.00% |           0      0.00%    100.00% |           0      0.00%    100.00% |           0      0.00%    100.00%
system.ruby.L2Cache_Controller.MT_I.WB_Data::total          220                      
system.ruby.L2Cache_Controller.MT_I.MEM_Inv |         219     99.55%     99.55% |           0      0.00%     99.55% |           0      0.00%     99.55% |           0      0.00%     99.55% |           1      0.45%    100.00% |           0      0.00%    100.00% |           0      0.00%    100.00% |           0      0.00%    100.00%
system.ruby.L2Cache_Controller.MT_I.MEM_Inv::total          220                      
system.ruby.L2Cache_Controller.I_I.Ack_all |        1710     12.77%     12.77% |        1691     12.63%     25.40% |        1651     12.33%     37.72% |        1617     12.07%     49.80% |        1651     12.33%     62.13% |        1655     12.36%     74.48% |        1697     12.67%     87.16% |        1720     12.84%    100.00%
system.ruby.L2Cache_Controller.I_I.Ack_all::total        13392                      
system.ruby.L2Cache_Controller.S_I.Ack_all |           0      0.00%      0.00% |           1     16.67%     16.67% |           0      0.00%     16.67% |           2     33.33%     50.00% |           1     16.67%     66.67% |           1     16.67%     83.33% |           1     16.67%    100.00% |           0      0.00%    100.00%
system.ruby.L2Cache_Controller.S_I.Ack_all::total            6                      
system.ruby.L2Cache_Controller.ISS.Mem_Data |       11229     12.87%     12.87% |       10854     12.44%     25.30% |       10903     12.49%     37.80% |       10984     12.59%     50.38% |       10803     12.38%     62.76% |       10913     12.50%     75.26% |       10932     12.53%     87.79% |       10657     12.21%    100.00%
system.ruby.L2Cache_Controller.ISS.Mem_Data::total        87275                      
system.ruby.L2Cache_Controller.IS.Mem_Data |        1214     12.58%     12.58% |        1209     12.53%     25.11% |        1216     12.60%     37.71% |        1184     12.27%     49.97% |        1185     12.28%     62.25% |        1183     12.26%     74.51% |        1231     12.76%     87.27% |        1229     12.73%    100.00%
system.ruby.L2Cache_Controller.IS.Mem_Data::total         9651                      
system.ruby.L2Cache_Controller.IM.Mem_Data |       48643     12.51%     12.51% |       48732     12.53%     25.04% |       48616     12.50%     37.54% |       48508     12.47%     50.01% |       48641     12.51%     62.52% |       48510     12.47%     75.00% |       48513     12.47%     87.47% |       48725     12.53%    100.00%
system.ruby.L2Cache_Controller.IM.Mem_Data::total       388888                      
system.ruby.L2Cache_Controller.MT_MB.Exclusive_Unblock |      513710     13.46%     13.46% |      474901     12.44%     25.90% |      489113     12.81%     38.72% |      470355     12.32%     51.04% |      450142     11.79%     62.83% |      479490     12.56%     75.40% |      470844     12.34%     87.73% |      468250     12.27%    100.00%
system.ruby.L2Cache_Controller.MT_MB.Exclusive_Unblock::total      3816805                      

---------- End Simulation Statistics   ----------
