
---------- Begin Simulation Statistics ----------
sim_seconds                                  0.320540                       # Number of seconds simulated
sim_ticks                                320540168500                       # Number of ticks simulated
final_tick                               5542683773500                       # Number of ticks from beginning of simulation (restored from checkpoints and never reset)
sim_freq                                 1000000000000                       # Frequency of simulated ticks
host_inst_rate                                 563066                       # Simulator instruction rate (inst/s)
host_op_rate                                  1030397                       # Simulator op (including micro ops) rate (op/s)
host_tick_rate                              601617458                       # Simulator tick rate (ticks/s)
host_mem_usage                                1772904                       # Number of bytes of host memory used
host_seconds                                   532.80                       # Real time elapsed on the host
sim_insts                                   300000000                       # Number of instructions simulated
sim_ops                                     548992999                       # Number of ops (including micro ops) simulated
system.voltage_domain.voltage                       1                       # Voltage in Volts
system.clk_domain.clock                          1000                       # Clock period in ticks
system.mem_ctrls0.pwrStateResidencyTicks::UNDEFINED 5542683773500                       # Cumulative time (in ticks) in various power states
system.mem_ctrls0.bytes_read::ruby.dir_cntrl0      1278592                       # Number of bytes read from this memory
system.mem_ctrls0.bytes_read::total           1278592                       # Number of bytes read from this memory
system.mem_ctrls0.bytes_written::ruby.dir_cntrl0      1702208                       # Number of bytes written to this memory
system.mem_ctrls0.bytes_written::total        1702208                       # Number of bytes written to this memory
system.mem_ctrls0.num_reads::ruby.dir_cntrl0        19978                       # Number of read requests responded to by this memory
system.mem_ctrls0.num_reads::total              19978                       # Number of read requests responded to by this memory
system.mem_ctrls0.num_writes::ruby.dir_cntrl0        26597                       # Number of write requests responded to by this memory
system.mem_ctrls0.num_writes::total             26597                       # Number of write requests responded to by this memory
system.mem_ctrls0.bw_read::ruby.dir_cntrl0      3988867                       # Total read bandwidth from this memory (bytes/s)
system.mem_ctrls0.bw_read::total              3988867                       # Total read bandwidth from this memory (bytes/s)
system.mem_ctrls0.bw_write::ruby.dir_cntrl0      5310436                       # Write bandwidth from this memory (bytes/s)
system.mem_ctrls0.bw_write::total             5310436                       # Write bandwidth from this memory (bytes/s)
system.mem_ctrls0.bw_total::ruby.dir_cntrl0      9299303                       # Total bandwidth to/from this memory (bytes/s)
system.mem_ctrls0.bw_total::total             9299303                       # Total bandwidth to/from this memory (bytes/s)
system.mem_ctrls0.readReqs                      19978                       # Number of read requests accepted
system.mem_ctrls0.writeReqs                     26597                       # Number of write requests accepted
system.mem_ctrls0.readBursts                    19978                       # Number of DRAM read bursts, including those serviced by the write queue
system.mem_ctrls0.writeBursts                   26597                       # Number of DRAM write bursts, including those merged in the write queue
system.mem_ctrls0.bytesReadDRAM               1250560                       # Total number of bytes read from DRAM
system.mem_ctrls0.bytesReadWrQ                  28032                       # Total number of bytes read from write queue
system.mem_ctrls0.bytesWritten                1692608                       # Total number of bytes written to DRAM
system.mem_ctrls0.bytesReadSys                1278592                       # Total read bytes from the system interface side
system.mem_ctrls0.bytesWrittenSys             1702208                       # Total written bytes from the system interface side
system.mem_ctrls0.servicedByWrQ                   438                       # Number of DRAM read bursts serviced by the write queue
system.mem_ctrls0.mergedWrBursts                  138                       # Number of DRAM write bursts merged with an existing one
system.mem_ctrls0.neitherReadNorWriteReqs            0                       # Number of requests that are neither read nor write
system.mem_ctrls0.perBankRdBursts::0             1298                       # Per bank write bursts
system.mem_ctrls0.perBankRdBursts::1             1472                       # Per bank write bursts
system.mem_ctrls0.perBankRdBursts::2             1322                       # Per bank write bursts
system.mem_ctrls0.perBankRdBursts::3             1315                       # Per bank write bursts
system.mem_ctrls0.perBankRdBursts::4             1238                       # Per bank write bursts
system.mem_ctrls0.perBankRdBursts::5             1155                       # Per bank write bursts
system.mem_ctrls0.perBankRdBursts::6             1096                       # Per bank write bursts
system.mem_ctrls0.perBankRdBursts::7             1079                       # Per bank write bursts
system.mem_ctrls0.perBankRdBursts::8             1129                       # Per bank write bursts
system.mem_ctrls0.perBankRdBursts::9             1082                       # Per bank write bursts
system.mem_ctrls0.perBankRdBursts::10            1181                       # Per bank write bursts
system.mem_ctrls0.perBankRdBursts::11            1173                       # Per bank write bursts
system.mem_ctrls0.perBankRdBursts::12            1237                       # Per bank write bursts
system.mem_ctrls0.perBankRdBursts::13            1223                       # Per bank write bursts
system.mem_ctrls0.perBankRdBursts::14            1238                       # Per bank write bursts
system.mem_ctrls0.perBankRdBursts::15            1302                       # Per bank write bursts
system.mem_ctrls0.perBankWrBursts::0             1807                       # Per bank write bursts
system.mem_ctrls0.perBankWrBursts::1             1741                       # Per bank write bursts
system.mem_ctrls0.perBankWrBursts::2             1644                       # Per bank write bursts
system.mem_ctrls0.perBankWrBursts::3             1575                       # Per bank write bursts
system.mem_ctrls0.perBankWrBursts::4             1492                       # Per bank write bursts
system.mem_ctrls0.perBankWrBursts::5             1591                       # Per bank write bursts
system.mem_ctrls0.perBankWrBursts::6             1589                       # Per bank write bursts
system.mem_ctrls0.perBankWrBursts::7             1667                       # Per bank write bursts
system.mem_ctrls0.perBankWrBursts::8             1717                       # Per bank write bursts
system.mem_ctrls0.perBankWrBursts::9             1704                       # Per bank write bursts
system.mem_ctrls0.perBankWrBursts::10            1603                       # Per bank write bursts
system.mem_ctrls0.perBankWrBursts::11            1688                       # Per bank write bursts
system.mem_ctrls0.perBankWrBursts::12            1738                       # Per bank write bursts
system.mem_ctrls0.perBankWrBursts::13            1805                       # Per bank write bursts
system.mem_ctrls0.perBankWrBursts::14            1568                       # Per bank write bursts
system.mem_ctrls0.perBankWrBursts::15            1518                       # Per bank write bursts
system.mem_ctrls0.numRdRetry                        0                       # Number of times read queue was full causing retry
system.mem_ctrls0.numWrRetry                       37                       # Number of times write queue was full causing retry
system.mem_ctrls0.totGap                 274790894500                       # Total gap between requests
system.mem_ctrls0.readPktSize::0                    0                       # Read request sizes (log2)
system.mem_ctrls0.readPktSize::1                    0                       # Read request sizes (log2)
system.mem_ctrls0.readPktSize::2                    0                       # Read request sizes (log2)
system.mem_ctrls0.readPktSize::3                    0                       # Read request sizes (log2)
system.mem_ctrls0.readPktSize::4                    0                       # Read request sizes (log2)
system.mem_ctrls0.readPktSize::5                    0                       # Read request sizes (log2)
system.mem_ctrls0.readPktSize::6                19978                       # Read request sizes (log2)
system.mem_ctrls0.writePktSize::0                   0                       # Write request sizes (log2)
system.mem_ctrls0.writePktSize::1                   0                       # Write request sizes (log2)
system.mem_ctrls0.writePktSize::2                   0                       # Write request sizes (log2)
system.mem_ctrls0.writePktSize::3                   0                       # Write request sizes (log2)
system.mem_ctrls0.writePktSize::4                   0                       # Write request sizes (log2)
system.mem_ctrls0.writePktSize::5                   0                       # Write request sizes (log2)
system.mem_ctrls0.writePktSize::6               26597                       # Write request sizes (log2)
system.mem_ctrls0.rdQLenPdf::0                  19533                       # What read queue length does an incoming req see
system.mem_ctrls0.rdQLenPdf::1                      7                       # What read queue length does an incoming req see
system.mem_ctrls0.rdQLenPdf::2                      0                       # What read queue length does an incoming req see
system.mem_ctrls0.rdQLenPdf::3                      0                       # What read queue length does an incoming req see
system.mem_ctrls0.rdQLenPdf::4                      0                       # What read queue length does an incoming req see
system.mem_ctrls0.rdQLenPdf::5                      0                       # What read queue length does an incoming req see
system.mem_ctrls0.rdQLenPdf::6                      0                       # What read queue length does an incoming req see
system.mem_ctrls0.rdQLenPdf::7                      0                       # What read queue length does an incoming req see
system.mem_ctrls0.rdQLenPdf::8                      0                       # What read queue length does an incoming req see
system.mem_ctrls0.rdQLenPdf::9                      0                       # What read queue length does an incoming req see
system.mem_ctrls0.rdQLenPdf::10                     0                       # What read queue length does an incoming req see
system.mem_ctrls0.rdQLenPdf::11                     0                       # What read queue length does an incoming req see
system.mem_ctrls0.rdQLenPdf::12                     0                       # What read queue length does an incoming req see
system.mem_ctrls0.rdQLenPdf::13                     0                       # What read queue length does an incoming req see
system.mem_ctrls0.rdQLenPdf::14                     0                       # What read queue length does an incoming req see
system.mem_ctrls0.rdQLenPdf::15                     0                       # What read queue length does an incoming req see
system.mem_ctrls0.rdQLenPdf::16                     0                       # What read queue length does an incoming req see
system.mem_ctrls0.rdQLenPdf::17                     0                       # What read queue length does an incoming req see
system.mem_ctrls0.rdQLenPdf::18                     0                       # What read queue length does an incoming req see
system.mem_ctrls0.rdQLenPdf::19                     0                       # What read queue length does an incoming req see
system.mem_ctrls0.rdQLenPdf::20                     0                       # What read queue length does an incoming req see
system.mem_ctrls0.rdQLenPdf::21                     0                       # What read queue length does an incoming req see
system.mem_ctrls0.rdQLenPdf::22                     0                       # What read queue length does an incoming req see
system.mem_ctrls0.rdQLenPdf::23                     0                       # What read queue length does an incoming req see
system.mem_ctrls0.rdQLenPdf::24                     0                       # What read queue length does an incoming req see
system.mem_ctrls0.rdQLenPdf::25                     0                       # What read queue length does an incoming req see
system.mem_ctrls0.rdQLenPdf::26                     0                       # What read queue length does an incoming req see
system.mem_ctrls0.rdQLenPdf::27                     0                       # What read queue length does an incoming req see
system.mem_ctrls0.rdQLenPdf::28                     0                       # What read queue length does an incoming req see
system.mem_ctrls0.rdQLenPdf::29                     0                       # What read queue length does an incoming req see
system.mem_ctrls0.rdQLenPdf::30                     0                       # What read queue length does an incoming req see
system.mem_ctrls0.rdQLenPdf::31                     0                       # What read queue length does an incoming req see
system.mem_ctrls0.wrQLenPdf::0                      0                       # What write queue length does an incoming req see
system.mem_ctrls0.wrQLenPdf::1                      0                       # What write queue length does an incoming req see
system.mem_ctrls0.wrQLenPdf::2                      0                       # What write queue length does an incoming req see
system.mem_ctrls0.wrQLenPdf::3                      0                       # What write queue length does an incoming req see
system.mem_ctrls0.wrQLenPdf::4                      0                       # What write queue length does an incoming req see
system.mem_ctrls0.wrQLenPdf::5                      0                       # What write queue length does an incoming req see
system.mem_ctrls0.wrQLenPdf::6                      0                       # What write queue length does an incoming req see
system.mem_ctrls0.wrQLenPdf::7                      0                       # What write queue length does an incoming req see
system.mem_ctrls0.wrQLenPdf::8                      0                       # What write queue length does an incoming req see
system.mem_ctrls0.wrQLenPdf::9                      0                       # What write queue length does an incoming req see
system.mem_ctrls0.wrQLenPdf::10                     0                       # What write queue length does an incoming req see
system.mem_ctrls0.wrQLenPdf::11                     0                       # What write queue length does an incoming req see
system.mem_ctrls0.wrQLenPdf::12                     0                       # What write queue length does an incoming req see
system.mem_ctrls0.wrQLenPdf::13                     0                       # What write queue length does an incoming req see
system.mem_ctrls0.wrQLenPdf::14                     0                       # What write queue length does an incoming req see
system.mem_ctrls0.wrQLenPdf::15                   209                       # What write queue length does an incoming req see
system.mem_ctrls0.wrQLenPdf::16                   317                       # What write queue length does an incoming req see
system.mem_ctrls0.wrQLenPdf::17                  1379                       # What write queue length does an incoming req see
system.mem_ctrls0.wrQLenPdf::18                  1460                       # What write queue length does an incoming req see
system.mem_ctrls0.wrQLenPdf::19                  1510                       # What write queue length does an incoming req see
system.mem_ctrls0.wrQLenPdf::20                  1509                       # What write queue length does an incoming req see
system.mem_ctrls0.wrQLenPdf::21                  1498                       # What write queue length does an incoming req see
system.mem_ctrls0.wrQLenPdf::22                  1537                       # What write queue length does an incoming req see
system.mem_ctrls0.wrQLenPdf::23                  1507                       # What write queue length does an incoming req see
system.mem_ctrls0.wrQLenPdf::24                  1575                       # What write queue length does an incoming req see
system.mem_ctrls0.wrQLenPdf::25                  1651                       # What write queue length does an incoming req see
system.mem_ctrls0.wrQLenPdf::26                  1535                       # What write queue length does an incoming req see
system.mem_ctrls0.wrQLenPdf::27                  1510                       # What write queue length does an incoming req see
system.mem_ctrls0.wrQLenPdf::28                  1506                       # What write queue length does an incoming req see
system.mem_ctrls0.wrQLenPdf::29                  1442                       # What write queue length does an incoming req see
system.mem_ctrls0.wrQLenPdf::30                  1404                       # What write queue length does an incoming req see
system.mem_ctrls0.wrQLenPdf::31                  1396                       # What write queue length does an incoming req see
system.mem_ctrls0.wrQLenPdf::32                  1402                       # What write queue length does an incoming req see
system.mem_ctrls0.wrQLenPdf::33                   101                       # What write queue length does an incoming req see
system.mem_ctrls0.wrQLenPdf::34                    87                       # What write queue length does an incoming req see
system.mem_ctrls0.wrQLenPdf::35                    84                       # What write queue length does an incoming req see
system.mem_ctrls0.wrQLenPdf::36                    90                       # What write queue length does an incoming req see
system.mem_ctrls0.wrQLenPdf::37                    89                       # What write queue length does an incoming req see
system.mem_ctrls0.wrQLenPdf::38                    79                       # What write queue length does an incoming req see
system.mem_ctrls0.wrQLenPdf::39                    84                       # What write queue length does an incoming req see
system.mem_ctrls0.wrQLenPdf::40                    87                       # What write queue length does an incoming req see
system.mem_ctrls0.wrQLenPdf::41                    87                       # What write queue length does an incoming req see
system.mem_ctrls0.wrQLenPdf::42                    86                       # What write queue length does an incoming req see
system.mem_ctrls0.wrQLenPdf::43                    92                       # What write queue length does an incoming req see
system.mem_ctrls0.wrQLenPdf::44                    84                       # What write queue length does an incoming req see
system.mem_ctrls0.wrQLenPdf::45                    78                       # What write queue length does an incoming req see
system.mem_ctrls0.wrQLenPdf::46                    71                       # What write queue length does an incoming req see
system.mem_ctrls0.wrQLenPdf::47                    72                       # What write queue length does an incoming req see
system.mem_ctrls0.wrQLenPdf::48                    72                       # What write queue length does an incoming req see
system.mem_ctrls0.wrQLenPdf::49                    83                       # What write queue length does an incoming req see
system.mem_ctrls0.wrQLenPdf::50                    77                       # What write queue length does an incoming req see
system.mem_ctrls0.wrQLenPdf::51                    65                       # What write queue length does an incoming req see
system.mem_ctrls0.wrQLenPdf::52                    51                       # What write queue length does an incoming req see
system.mem_ctrls0.wrQLenPdf::53                    52                       # What write queue length does an incoming req see
system.mem_ctrls0.wrQLenPdf::54                    57                       # What write queue length does an incoming req see
system.mem_ctrls0.wrQLenPdf::55                    56                       # What write queue length does an incoming req see
system.mem_ctrls0.wrQLenPdf::56                    59                       # What write queue length does an incoming req see
system.mem_ctrls0.wrQLenPdf::57                    49                       # What write queue length does an incoming req see
system.mem_ctrls0.wrQLenPdf::58                    44                       # What write queue length does an incoming req see
system.mem_ctrls0.wrQLenPdf::59                    28                       # What write queue length does an incoming req see
system.mem_ctrls0.wrQLenPdf::60                    29                       # What write queue length does an incoming req see
system.mem_ctrls0.wrQLenPdf::61                    24                       # What write queue length does an incoming req see
system.mem_ctrls0.wrQLenPdf::62                    31                       # What write queue length does an incoming req see
system.mem_ctrls0.wrQLenPdf::63                    64                       # What write queue length does an incoming req see
system.mem_ctrls0.bytesPerActivate::samples        12180                       # Bytes accessed per row activation
system.mem_ctrls0.bytesPerActivate::mean   241.639409                       # Bytes accessed per row activation
system.mem_ctrls0.bytesPerActivate::gmean   167.468132                       # Bytes accessed per row activation
system.mem_ctrls0.bytesPerActivate::stdev   228.037701                       # Bytes accessed per row activation
system.mem_ctrls0.bytesPerActivate::0-127         4049     33.24%     33.24% # Bytes accessed per row activation
system.mem_ctrls0.bytesPerActivate::128-255         3386     27.80%     61.04% # Bytes accessed per row activation
system.mem_ctrls0.bytesPerActivate::256-383         2037     16.72%     77.77% # Bytes accessed per row activation
system.mem_ctrls0.bytesPerActivate::384-511         1322     10.85%     88.62% # Bytes accessed per row activation
system.mem_ctrls0.bytesPerActivate::512-639          604      4.96%     93.58% # Bytes accessed per row activation
system.mem_ctrls0.bytesPerActivate::640-767          155      1.27%     94.85% # Bytes accessed per row activation
system.mem_ctrls0.bytesPerActivate::768-895           74      0.61%     95.46% # Bytes accessed per row activation
system.mem_ctrls0.bytesPerActivate::896-1023           82      0.67%     96.13% # Bytes accessed per row activation
system.mem_ctrls0.bytesPerActivate::1024-1151          471      3.87%    100.00% # Bytes accessed per row activation
system.mem_ctrls0.bytesPerActivate::total        12180                       # Bytes accessed per row activation
system.mem_ctrls0.rdPerTurnAround::samples         1345                       # Reads before turning the bus around for writes
system.mem_ctrls0.rdPerTurnAround::mean     14.518216                       # Reads before turning the bus around for writes
system.mem_ctrls0.rdPerTurnAround::stdev     8.172608                       # Reads before turning the bus around for writes
system.mem_ctrls0.rdPerTurnAround::0-3            241     17.92%     17.92% # Reads before turning the bus around for writes
system.mem_ctrls0.rdPerTurnAround::4-7             32      2.38%     20.30% # Reads before turning the bus around for writes
system.mem_ctrls0.rdPerTurnAround::8-11            30      2.23%     22.53% # Reads before turning the bus around for writes
system.mem_ctrls0.rdPerTurnAround::12-15           28      2.08%     24.61% # Reads before turning the bus around for writes
system.mem_ctrls0.rdPerTurnAround::16-19          854     63.49%     88.10% # Reads before turning the bus around for writes
system.mem_ctrls0.rdPerTurnAround::20-23           98      7.29%     95.39% # Reads before turning the bus around for writes
system.mem_ctrls0.rdPerTurnAround::24-27           27      2.01%     97.40% # Reads before turning the bus around for writes
system.mem_ctrls0.rdPerTurnAround::28-31           14      1.04%     98.44% # Reads before turning the bus around for writes
system.mem_ctrls0.rdPerTurnAround::32-35            6      0.45%     98.88% # Reads before turning the bus around for writes
system.mem_ctrls0.rdPerTurnAround::36-39            5      0.37%     99.26% # Reads before turning the bus around for writes
system.mem_ctrls0.rdPerTurnAround::40-43            2      0.15%     99.41% # Reads before turning the bus around for writes
system.mem_ctrls0.rdPerTurnAround::48-51            2      0.15%     99.55% # Reads before turning the bus around for writes
system.mem_ctrls0.rdPerTurnAround::52-55            1      0.07%     99.63% # Reads before turning the bus around for writes
system.mem_ctrls0.rdPerTurnAround::56-59            1      0.07%     99.70% # Reads before turning the bus around for writes
system.mem_ctrls0.rdPerTurnAround::64-67            1      0.07%     99.78% # Reads before turning the bus around for writes
system.mem_ctrls0.rdPerTurnAround::72-75            2      0.15%     99.93% # Reads before turning the bus around for writes
system.mem_ctrls0.rdPerTurnAround::84-87            1      0.07%    100.00% # Reads before turning the bus around for writes
system.mem_ctrls0.rdPerTurnAround::total         1345                       # Reads before turning the bus around for writes
system.mem_ctrls0.wrPerTurnAround::samples         1345                       # Writes before turning the bus around for reads
system.mem_ctrls0.wrPerTurnAround::mean     19.663197                       # Writes before turning the bus around for reads
system.mem_ctrls0.wrPerTurnAround::gmean    18.321495                       # Writes before turning the bus around for reads
system.mem_ctrls0.wrPerTurnAround::stdev    10.404842                       # Writes before turning the bus around for reads
system.mem_ctrls0.wrPerTurnAround::16-17         1083     80.52%     80.52% # Writes before turning the bus around for reads
system.mem_ctrls0.wrPerTurnAround::18-19           28      2.08%     82.60% # Writes before turning the bus around for reads
system.mem_ctrls0.wrPerTurnAround::20-21            7      0.52%     83.12% # Writes before turning the bus around for reads
system.mem_ctrls0.wrPerTurnAround::22-23           16      1.19%     84.31% # Writes before turning the bus around for reads
system.mem_ctrls0.wrPerTurnAround::24-25           15      1.12%     85.43% # Writes before turning the bus around for reads
system.mem_ctrls0.wrPerTurnAround::26-27           19      1.41%     86.84% # Writes before turning the bus around for reads
system.mem_ctrls0.wrPerTurnAround::28-29           42      3.12%     89.96% # Writes before turning the bus around for reads
system.mem_ctrls0.wrPerTurnAround::30-31           18      1.34%     91.30% # Writes before turning the bus around for reads
system.mem_ctrls0.wrPerTurnAround::32-33           22      1.64%     92.94% # Writes before turning the bus around for reads
system.mem_ctrls0.wrPerTurnAround::34-35           14      1.04%     93.98% # Writes before turning the bus around for reads
system.mem_ctrls0.wrPerTurnAround::36-37           11      0.82%     94.80% # Writes before turning the bus around for reads
system.mem_ctrls0.wrPerTurnAround::38-39            7      0.52%     95.32% # Writes before turning the bus around for reads
system.mem_ctrls0.wrPerTurnAround::40-41            6      0.45%     95.76% # Writes before turning the bus around for reads
system.mem_ctrls0.wrPerTurnAround::42-43            4      0.30%     96.06% # Writes before turning the bus around for reads
system.mem_ctrls0.wrPerTurnAround::44-45            3      0.22%     96.28% # Writes before turning the bus around for reads
system.mem_ctrls0.wrPerTurnAround::46-47            3      0.22%     96.51% # Writes before turning the bus around for reads
system.mem_ctrls0.wrPerTurnAround::48-49           14      1.04%     97.55% # Writes before turning the bus around for reads
system.mem_ctrls0.wrPerTurnAround::50-51            2      0.15%     97.70% # Writes before turning the bus around for reads
system.mem_ctrls0.wrPerTurnAround::52-53            3      0.22%     97.92% # Writes before turning the bus around for reads
system.mem_ctrls0.wrPerTurnAround::54-55            6      0.45%     98.36% # Writes before turning the bus around for reads
system.mem_ctrls0.wrPerTurnAround::56-57            3      0.22%     98.59% # Writes before turning the bus around for reads
system.mem_ctrls0.wrPerTurnAround::60-61            4      0.30%     98.88% # Writes before turning the bus around for reads
system.mem_ctrls0.wrPerTurnAround::64-65            1      0.07%     98.96% # Writes before turning the bus around for reads
system.mem_ctrls0.wrPerTurnAround::66-67            2      0.15%     99.11% # Writes before turning the bus around for reads
system.mem_ctrls0.wrPerTurnAround::68-69            3      0.22%     99.33% # Writes before turning the bus around for reads
system.mem_ctrls0.wrPerTurnAround::70-71            1      0.07%     99.41% # Writes before turning the bus around for reads
system.mem_ctrls0.wrPerTurnAround::76-77            1      0.07%     99.48% # Writes before turning the bus around for reads
system.mem_ctrls0.wrPerTurnAround::84-85            1      0.07%     99.55% # Writes before turning the bus around for reads
system.mem_ctrls0.wrPerTurnAround::90-91            1      0.07%     99.63% # Writes before turning the bus around for reads
system.mem_ctrls0.wrPerTurnAround::100-101            1      0.07%     99.70% # Writes before turning the bus around for reads
system.mem_ctrls0.wrPerTurnAround::110-111            1      0.07%     99.78% # Writes before turning the bus around for reads
system.mem_ctrls0.wrPerTurnAround::112-113            3      0.22%    100.00% # Writes before turning the bus around for reads
system.mem_ctrls0.wrPerTurnAround::total         1345                       # Writes before turning the bus around for reads
system.mem_ctrls0.totQLat                  1317215000                       # Total ticks spent queuing
system.mem_ctrls0.totMemAccLat             1683590000                       # Total ticks spent from burst creation until serviced by the DRAM
system.mem_ctrls0.totBusLat                  97700000                       # Total ticks spent in databus transfers
system.mem_ctrls0.avgQLat                    67411.21                       # Average queueing delay per DRAM burst
system.mem_ctrls0.avgBusLat                   5000.00                       # Average bus latency per DRAM burst
system.mem_ctrls0.avgMemAccLat               86161.21                       # Average memory access latency per DRAM burst
system.mem_ctrls0.avgRdBW                        3.90                       # Average DRAM read bandwidth in MiByte/s
system.mem_ctrls0.avgWrBW                        5.28                       # Average achieved write bandwidth in MiByte/s
system.mem_ctrls0.avgRdBWSys                     3.99                       # Average system read bandwidth in MiByte/s
system.mem_ctrls0.avgWrBWSys                     5.31                       # Average system write bandwidth in MiByte/s
system.mem_ctrls0.peakBW                     12800.00                       # Theoretical peak bandwidth in MiByte/s
system.mem_ctrls0.busUtil                        0.07                       # Data bus utilization in percentage
system.mem_ctrls0.busUtilRead                    0.03                       # Data bus utilization in percentage for reads
system.mem_ctrls0.busUtilWrite                   0.04                       # Data bus utilization in percentage for writes
system.mem_ctrls0.avgRdQLen                      1.00                       # Average read queue length when enqueuing
system.mem_ctrls0.avgWrQLen                     26.31                       # Average write queue length when enqueuing
system.mem_ctrls0.readRowHits                   13672                       # Number of row buffer hits during reads
system.mem_ctrls0.writeRowHits                  20135                       # Number of row buffer hits during writes
system.mem_ctrls0.readRowHitRate                69.97                       # Row buffer hit rate for reads
system.mem_ctrls0.writeRowHitRate               76.10                       # Row buffer hit rate for writes
system.mem_ctrls0.avgGap                   5899965.53                       # Average gap between requests
system.mem_ctrls0.pageHitRate                   73.50                       # Row buffer hit rate, read and write combined
system.mem_ctrls0_0.actEnergy                85779960                       # Energy for activate commands per rank (pJ)
system.mem_ctrls0_0.preEnergy                45593130                       # Energy for precharge commands per rank (pJ)
system.mem_ctrls0_0.readEnergy              192358740                       # Energy for read commands per rank (pJ)
system.mem_ctrls0_0.writeEnergy              92153880                       # Energy for write commands per rank (pJ)
system.mem_ctrls0_0.refreshEnergy        7590804000.000002                       # Energy for refresh commands per rank (pJ)
system.mem_ctrls0_0.actBackEnergy          2492315310                       # Energy for active background per rank (pJ)
system.mem_ctrls0_0.preBackEnergy           434458080                       # Energy for precharge background per rank (pJ)
system.mem_ctrls0_0.actPowerDownEnergy    18375685650                       # Energy for active power-down per rank (pJ)
system.mem_ctrls0_0.prePowerDownEnergy    10892494080                       # Energy for precharge power-down per rank (pJ)
system.mem_ctrls0_0.selfRefreshEnergy    1313774092440                       # Energy for self refresh per rank (pJ)
system.mem_ctrls0_0.totalEnergy          1353977897280                       # Total energy per rank (pJ)
system.mem_ctrls0_0.averagePower           244.282004                       # Core power per rank (mW)
system.mem_ctrls0_0.totalIdleTime        271693985250                       # Total Idle time Per DRAM Rank
system.mem_ctrls0_0.memoryStateTime::IDLE    335475500                       # Time in different power states
system.mem_ctrls0_0.memoryStateTime::REF   1262972000                       # Time in different power states
system.mem_ctrls0_0.memoryStateTime::SREF 292083605750                       # Time in different power states
system.mem_ctrls0_0.memoryStateTime::PRE_PDN  11187061000                       # Time in different power states
system.mem_ctrls0_0.memoryStateTime::ACT   1493813250                       # Time in different power states
system.mem_ctrls0_0.memoryStateTime::ACT_PDN  15085267500                       # Time in different power states
system.mem_ctrls0_1.actEnergy                73006500                       # Energy for activate commands per rank (pJ)
system.mem_ctrls0_1.preEnergy                38803875                       # Energy for precharge commands per rank (pJ)
system.mem_ctrls0_1.readEnergy              187881960                       # Energy for read commands per rank (pJ)
system.mem_ctrls0_1.writeEnergy              87758640                       # Energy for write commands per rank (pJ)
system.mem_ctrls0_1.refreshEnergy        6977393280.000002                       # Energy for refresh commands per rank (pJ)
system.mem_ctrls0_1.actBackEnergy          2472168660                       # Energy for active background per rank (pJ)
system.mem_ctrls0_1.preBackEnergy           410808960                       # Energy for precharge background per rank (pJ)
system.mem_ctrls0_1.actPowerDownEnergy    16928758320                       # Energy for active power-down per rank (pJ)
system.mem_ctrls0_1.prePowerDownEnergy     9785880960                       # Energy for precharge power-down per rank (pJ)
system.mem_ctrls0_1.selfRefreshEnergy    1315129878030                       # Energy for self refresh per rank (pJ)
system.mem_ctrls0_1.totalEnergy          1352094292635                       # Total energy per rank (pJ)
system.mem_ctrls0_1.averagePower           243.942167                       # Core power per rank (mW)
system.mem_ctrls0_1.totalIdleTime        245179801250                       # Total Idle time Per DRAM Rank
system.mem_ctrls0_1.memoryStateTime::IDLE    380186500                       # Time in different power states
system.mem_ctrls0_1.memoryStateTime::REF   1291308000                       # Time in different power states
system.mem_ctrls0_1.memoryStateTime::SREF 294333544000                       # Time in different power states
system.mem_ctrls0_1.memoryStateTime::PRE_PDN  11605967000                       # Time in different power states
system.mem_ctrls0_1.memoryStateTime::ACT   1722062250                       # Time in different power states
system.mem_ctrls0_1.memoryStateTime::ACT_PDN  14538421500                       # Time in different power states
system.mem_ctrls1.pwrStateResidencyTicks::UNDEFINED 5542683773500                       # Cumulative time (in ticks) in various power states
system.mem_ctrls1.bytes_read::ruby.dir_cntrl1      1254208                       # Number of bytes read from this memory
system.mem_ctrls1.bytes_read::total           1254208                       # Number of bytes read from this memory
system.mem_ctrls1.bytes_written::ruby.dir_cntrl1      1696512                       # Number of bytes written to this memory
system.mem_ctrls1.bytes_written::total        1696512                       # Number of bytes written to this memory
system.mem_ctrls1.num_reads::ruby.dir_cntrl1        19597                       # Number of read requests responded to by this memory
system.mem_ctrls1.num_reads::total              19597                       # Number of read requests responded to by this memory
system.mem_ctrls1.num_writes::ruby.dir_cntrl1        26508                       # Number of write requests responded to by this memory
system.mem_ctrls1.num_writes::total             26508                       # Number of write requests responded to by this memory
system.mem_ctrls1.bw_read::ruby.dir_cntrl1      3912795                       # Total read bandwidth from this memory (bytes/s)
system.mem_ctrls1.bw_read::total              3912795                       # Total read bandwidth from this memory (bytes/s)
system.mem_ctrls1.bw_write::ruby.dir_cntrl1      5292666                       # Write bandwidth from this memory (bytes/s)
system.mem_ctrls1.bw_write::total             5292666                       # Write bandwidth from this memory (bytes/s)
system.mem_ctrls1.bw_total::ruby.dir_cntrl1      9205461                       # Total bandwidth to/from this memory (bytes/s)
system.mem_ctrls1.bw_total::total             9205461                       # Total bandwidth to/from this memory (bytes/s)
system.mem_ctrls1.readReqs                      19597                       # Number of read requests accepted
system.mem_ctrls1.writeReqs                     26508                       # Number of write requests accepted
system.mem_ctrls1.readBursts                    19597                       # Number of DRAM read bursts, including those serviced by the write queue
system.mem_ctrls1.writeBursts                   26508                       # Number of DRAM write bursts, including those merged in the write queue
system.mem_ctrls1.bytesReadDRAM               1236864                       # Total number of bytes read from DRAM
system.mem_ctrls1.bytesReadWrQ                  17344                       # Total number of bytes read from write queue
system.mem_ctrls1.bytesWritten                1695808                       # Total number of bytes written to DRAM
system.mem_ctrls1.bytesReadSys                1254208                       # Total read bytes from the system interface side
system.mem_ctrls1.bytesWrittenSys             1696512                       # Total written bytes from the system interface side
system.mem_ctrls1.servicedByWrQ                   271                       # Number of DRAM read bursts serviced by the write queue
system.mem_ctrls1.mergedWrBursts                    6                       # Number of DRAM write bursts merged with an existing one
system.mem_ctrls1.neitherReadNorWriteReqs            0                       # Number of requests that are neither read nor write
system.mem_ctrls1.perBankRdBursts::0             1295                       # Per bank write bursts
system.mem_ctrls1.perBankRdBursts::1             1253                       # Per bank write bursts
system.mem_ctrls1.perBankRdBursts::2             1322                       # Per bank write bursts
system.mem_ctrls1.perBankRdBursts::3             1309                       # Per bank write bursts
system.mem_ctrls1.perBankRdBursts::4             1242                       # Per bank write bursts
system.mem_ctrls1.perBankRdBursts::5             1162                       # Per bank write bursts
system.mem_ctrls1.perBankRdBursts::6             1102                       # Per bank write bursts
system.mem_ctrls1.perBankRdBursts::7             1076                       # Per bank write bursts
system.mem_ctrls1.perBankRdBursts::8             1120                       # Per bank write bursts
system.mem_ctrls1.perBankRdBursts::9             1073                       # Per bank write bursts
system.mem_ctrls1.perBankRdBursts::10            1179                       # Per bank write bursts
system.mem_ctrls1.perBankRdBursts::11            1171                       # Per bank write bursts
system.mem_ctrls1.perBankRdBursts::12            1242                       # Per bank write bursts
system.mem_ctrls1.perBankRdBursts::13            1227                       # Per bank write bursts
system.mem_ctrls1.perBankRdBursts::14            1244                       # Per bank write bursts
system.mem_ctrls1.perBankRdBursts::15            1309                       # Per bank write bursts
system.mem_ctrls1.perBankWrBursts::0             1802                       # Per bank write bursts
system.mem_ctrls1.perBankWrBursts::1             1639                       # Per bank write bursts
system.mem_ctrls1.perBankWrBursts::2             1646                       # Per bank write bursts
system.mem_ctrls1.perBankWrBursts::3             1598                       # Per bank write bursts
system.mem_ctrls1.perBankWrBursts::4             1500                       # Per bank write bursts
system.mem_ctrls1.perBankWrBursts::5             1637                       # Per bank write bursts
system.mem_ctrls1.perBankWrBursts::6             1633                       # Per bank write bursts
system.mem_ctrls1.perBankWrBursts::7             1672                       # Per bank write bursts
system.mem_ctrls1.perBankWrBursts::8             1716                       # Per bank write bursts
system.mem_ctrls1.perBankWrBursts::9             1689                       # Per bank write bursts
system.mem_ctrls1.perBankWrBursts::10            1647                       # Per bank write bursts
system.mem_ctrls1.perBankWrBursts::11            1692                       # Per bank write bursts
system.mem_ctrls1.perBankWrBursts::12            1739                       # Per bank write bursts
system.mem_ctrls1.perBankWrBursts::13            1806                       # Per bank write bursts
system.mem_ctrls1.perBankWrBursts::14            1570                       # Per bank write bursts
system.mem_ctrls1.perBankWrBursts::15            1511                       # Per bank write bursts
system.mem_ctrls1.numRdRetry                        0                       # Number of times read queue was full causing retry
system.mem_ctrls1.numWrRetry                       94                       # Number of times write queue was full causing retry
system.mem_ctrls1.totGap                 277204893000                       # Total gap between requests
system.mem_ctrls1.readPktSize::0                    0                       # Read request sizes (log2)
system.mem_ctrls1.readPktSize::1                    0                       # Read request sizes (log2)
system.mem_ctrls1.readPktSize::2                    0                       # Read request sizes (log2)
system.mem_ctrls1.readPktSize::3                    0                       # Read request sizes (log2)
system.mem_ctrls1.readPktSize::4                    0                       # Read request sizes (log2)
system.mem_ctrls1.readPktSize::5                    0                       # Read request sizes (log2)
system.mem_ctrls1.readPktSize::6                19597                       # Read request sizes (log2)
system.mem_ctrls1.writePktSize::0                   0                       # Write request sizes (log2)
system.mem_ctrls1.writePktSize::1                   0                       # Write request sizes (log2)
system.mem_ctrls1.writePktSize::2                   0                       # Write request sizes (log2)
system.mem_ctrls1.writePktSize::3                   0                       # Write request sizes (log2)
system.mem_ctrls1.writePktSize::4                   0                       # Write request sizes (log2)
system.mem_ctrls1.writePktSize::5                   0                       # Write request sizes (log2)
system.mem_ctrls1.writePktSize::6               26508                       # Write request sizes (log2)
system.mem_ctrls1.rdQLenPdf::0                  19325                       # What read queue length does an incoming req see
system.mem_ctrls1.rdQLenPdf::1                      1                       # What read queue length does an incoming req see
system.mem_ctrls1.rdQLenPdf::2                      0                       # What read queue length does an incoming req see
system.mem_ctrls1.rdQLenPdf::3                      0                       # What read queue length does an incoming req see
system.mem_ctrls1.rdQLenPdf::4                      0                       # What read queue length does an incoming req see
system.mem_ctrls1.rdQLenPdf::5                      0                       # What read queue length does an incoming req see
system.mem_ctrls1.rdQLenPdf::6                      0                       # What read queue length does an incoming req see
system.mem_ctrls1.rdQLenPdf::7                      0                       # What read queue length does an incoming req see
system.mem_ctrls1.rdQLenPdf::8                      0                       # What read queue length does an incoming req see
system.mem_ctrls1.rdQLenPdf::9                      0                       # What read queue length does an incoming req see
system.mem_ctrls1.rdQLenPdf::10                     0                       # What read queue length does an incoming req see
system.mem_ctrls1.rdQLenPdf::11                     0                       # What read queue length does an incoming req see
system.mem_ctrls1.rdQLenPdf::12                     0                       # What read queue length does an incoming req see
system.mem_ctrls1.rdQLenPdf::13                     0                       # What read queue length does an incoming req see
system.mem_ctrls1.rdQLenPdf::14                     0                       # What read queue length does an incoming req see
system.mem_ctrls1.rdQLenPdf::15                     0                       # What read queue length does an incoming req see
system.mem_ctrls1.rdQLenPdf::16                     0                       # What read queue length does an incoming req see
system.mem_ctrls1.rdQLenPdf::17                     0                       # What read queue length does an incoming req see
system.mem_ctrls1.rdQLenPdf::18                     0                       # What read queue length does an incoming req see
system.mem_ctrls1.rdQLenPdf::19                     0                       # What read queue length does an incoming req see
system.mem_ctrls1.rdQLenPdf::20                     0                       # What read queue length does an incoming req see
system.mem_ctrls1.rdQLenPdf::21                     0                       # What read queue length does an incoming req see
system.mem_ctrls1.rdQLenPdf::22                     0                       # What read queue length does an incoming req see
system.mem_ctrls1.rdQLenPdf::23                     0                       # What read queue length does an incoming req see
system.mem_ctrls1.rdQLenPdf::24                     0                       # What read queue length does an incoming req see
system.mem_ctrls1.rdQLenPdf::25                     0                       # What read queue length does an incoming req see
system.mem_ctrls1.rdQLenPdf::26                     0                       # What read queue length does an incoming req see
system.mem_ctrls1.rdQLenPdf::27                     0                       # What read queue length does an incoming req see
system.mem_ctrls1.rdQLenPdf::28                     0                       # What read queue length does an incoming req see
system.mem_ctrls1.rdQLenPdf::29                     0                       # What read queue length does an incoming req see
system.mem_ctrls1.rdQLenPdf::30                     0                       # What read queue length does an incoming req see
system.mem_ctrls1.rdQLenPdf::31                     0                       # What read queue length does an incoming req see
system.mem_ctrls1.wrQLenPdf::0                      0                       # What write queue length does an incoming req see
system.mem_ctrls1.wrQLenPdf::1                      0                       # What write queue length does an incoming req see
system.mem_ctrls1.wrQLenPdf::2                      0                       # What write queue length does an incoming req see
system.mem_ctrls1.wrQLenPdf::3                      0                       # What write queue length does an incoming req see
system.mem_ctrls1.wrQLenPdf::4                      0                       # What write queue length does an incoming req see
system.mem_ctrls1.wrQLenPdf::5                      0                       # What write queue length does an incoming req see
system.mem_ctrls1.wrQLenPdf::6                      0                       # What write queue length does an incoming req see
system.mem_ctrls1.wrQLenPdf::7                      0                       # What write queue length does an incoming req see
system.mem_ctrls1.wrQLenPdf::8                      0                       # What write queue length does an incoming req see
system.mem_ctrls1.wrQLenPdf::9                      0                       # What write queue length does an incoming req see
system.mem_ctrls1.wrQLenPdf::10                     0                       # What write queue length does an incoming req see
system.mem_ctrls1.wrQLenPdf::11                     0                       # What write queue length does an incoming req see
system.mem_ctrls1.wrQLenPdf::12                     0                       # What write queue length does an incoming req see
system.mem_ctrls1.wrQLenPdf::13                     0                       # What write queue length does an incoming req see
system.mem_ctrls1.wrQLenPdf::14                     0                       # What write queue length does an incoming req see
system.mem_ctrls1.wrQLenPdf::15                   249                       # What write queue length does an incoming req see
system.mem_ctrls1.wrQLenPdf::16                   352                       # What write queue length does an incoming req see
system.mem_ctrls1.wrQLenPdf::17                  1421                       # What write queue length does an incoming req see
system.mem_ctrls1.wrQLenPdf::18                  1465                       # What write queue length does an incoming req see
system.mem_ctrls1.wrQLenPdf::19                  1492                       # What write queue length does an incoming req see
system.mem_ctrls1.wrQLenPdf::20                  1473                       # What write queue length does an incoming req see
system.mem_ctrls1.wrQLenPdf::21                  1442                       # What write queue length does an incoming req see
system.mem_ctrls1.wrQLenPdf::22                  1517                       # What write queue length does an incoming req see
system.mem_ctrls1.wrQLenPdf::23                  1496                       # What write queue length does an incoming req see
system.mem_ctrls1.wrQLenPdf::24                  1569                       # What write queue length does an incoming req see
system.mem_ctrls1.wrQLenPdf::25                  1635                       # What write queue length does an incoming req see
system.mem_ctrls1.wrQLenPdf::26                  1453                       # What write queue length does an incoming req see
system.mem_ctrls1.wrQLenPdf::27                  1406                       # What write queue length does an incoming req see
system.mem_ctrls1.wrQLenPdf::28                  1405                       # What write queue length does an incoming req see
system.mem_ctrls1.wrQLenPdf::29                  1395                       # What write queue length does an incoming req see
system.mem_ctrls1.wrQLenPdf::30                  1366                       # What write queue length does an incoming req see
system.mem_ctrls1.wrQLenPdf::31                  1344                       # What write queue length does an incoming req see
system.mem_ctrls1.wrQLenPdf::32                  1323                       # What write queue length does an incoming req see
system.mem_ctrls1.wrQLenPdf::33                    92                       # What write queue length does an incoming req see
system.mem_ctrls1.wrQLenPdf::34                    87                       # What write queue length does an incoming req see
system.mem_ctrls1.wrQLenPdf::35                    81                       # What write queue length does an incoming req see
system.mem_ctrls1.wrQLenPdf::36                    90                       # What write queue length does an incoming req see
system.mem_ctrls1.wrQLenPdf::37                    98                       # What write queue length does an incoming req see
system.mem_ctrls1.wrQLenPdf::38                    99                       # What write queue length does an incoming req see
system.mem_ctrls1.wrQLenPdf::39                    91                       # What write queue length does an incoming req see
system.mem_ctrls1.wrQLenPdf::40                    97                       # What write queue length does an incoming req see
system.mem_ctrls1.wrQLenPdf::41                    89                       # What write queue length does an incoming req see
system.mem_ctrls1.wrQLenPdf::42                    87                       # What write queue length does an incoming req see
system.mem_ctrls1.wrQLenPdf::43                    95                       # What write queue length does an incoming req see
system.mem_ctrls1.wrQLenPdf::44                    98                       # What write queue length does an incoming req see
system.mem_ctrls1.wrQLenPdf::45                   104                       # What write queue length does an incoming req see
system.mem_ctrls1.wrQLenPdf::46                   104                       # What write queue length does an incoming req see
system.mem_ctrls1.wrQLenPdf::47                    96                       # What write queue length does an incoming req see
system.mem_ctrls1.wrQLenPdf::48                    96                       # What write queue length does an incoming req see
system.mem_ctrls1.wrQLenPdf::49                    93                       # What write queue length does an incoming req see
system.mem_ctrls1.wrQLenPdf::50                    91                       # What write queue length does an incoming req see
system.mem_ctrls1.wrQLenPdf::51                    89                       # What write queue length does an incoming req see
system.mem_ctrls1.wrQLenPdf::52                    91                       # What write queue length does an incoming req see
system.mem_ctrls1.wrQLenPdf::53                    85                       # What write queue length does an incoming req see
system.mem_ctrls1.wrQLenPdf::54                    81                       # What write queue length does an incoming req see
system.mem_ctrls1.wrQLenPdf::55                    88                       # What write queue length does an incoming req see
system.mem_ctrls1.wrQLenPdf::56                    75                       # What write queue length does an incoming req see
system.mem_ctrls1.wrQLenPdf::57                    73                       # What write queue length does an incoming req see
system.mem_ctrls1.wrQLenPdf::58                    72                       # What write queue length does an incoming req see
system.mem_ctrls1.wrQLenPdf::59                    60                       # What write queue length does an incoming req see
system.mem_ctrls1.wrQLenPdf::60                    52                       # What write queue length does an incoming req see
system.mem_ctrls1.wrQLenPdf::61                    41                       # What write queue length does an incoming req see
system.mem_ctrls1.wrQLenPdf::62                    59                       # What write queue length does an incoming req see
system.mem_ctrls1.wrQLenPdf::63                   145                       # What write queue length does an incoming req see
system.mem_ctrls1.bytesPerActivate::samples        11850                       # Bytes accessed per row activation
system.mem_ctrls1.bytesPerActivate::mean   247.482869                       # Bytes accessed per row activation
system.mem_ctrls1.bytesPerActivate::gmean   171.522433                       # Bytes accessed per row activation
system.mem_ctrls1.bytesPerActivate::stdev   230.293519                       # Bytes accessed per row activation
system.mem_ctrls1.bytesPerActivate::0-127         3848     32.47%     32.47% # Bytes accessed per row activation
system.mem_ctrls1.bytesPerActivate::128-255         3223     27.20%     59.67% # Bytes accessed per row activation
system.mem_ctrls1.bytesPerActivate::256-383         1961     16.55%     76.22% # Bytes accessed per row activation
system.mem_ctrls1.bytesPerActivate::384-511         1376     11.61%     87.83% # Bytes accessed per row activation
system.mem_ctrls1.bytesPerActivate::512-639          648      5.47%     93.30% # Bytes accessed per row activation
system.mem_ctrls1.bytesPerActivate::640-767          163      1.38%     94.68% # Bytes accessed per row activation
system.mem_ctrls1.bytesPerActivate::768-895           90      0.76%     95.43% # Bytes accessed per row activation
system.mem_ctrls1.bytesPerActivate::896-1023           78      0.66%     96.09% # Bytes accessed per row activation
system.mem_ctrls1.bytesPerActivate::1024-1151          463      3.91%    100.00% # Bytes accessed per row activation
system.mem_ctrls1.bytesPerActivate::total        11850                       # Bytes accessed per row activation
system.mem_ctrls1.rdPerTurnAround::samples         1321                       # Reads before turning the bus around for writes
system.mem_ctrls1.rdPerTurnAround::mean     14.626798                       # Reads before turning the bus around for writes
system.mem_ctrls1.rdPerTurnAround::stdev     7.897593                       # Reads before turning the bus around for writes
system.mem_ctrls1.rdPerTurnAround::0-3            222     16.81%     16.81% # Reads before turning the bus around for writes
system.mem_ctrls1.rdPerTurnAround::4-7             24      1.82%     18.62% # Reads before turning the bus around for writes
system.mem_ctrls1.rdPerTurnAround::8-11            24      1.82%     20.44% # Reads before turning the bus around for writes
system.mem_ctrls1.rdPerTurnAround::12-15           25      1.89%     22.33% # Reads before turning the bus around for writes
system.mem_ctrls1.rdPerTurnAround::16-19          865     65.48%     87.81% # Reads before turning the bus around for writes
system.mem_ctrls1.rdPerTurnAround::20-23           99      7.49%     95.31% # Reads before turning the bus around for writes
system.mem_ctrls1.rdPerTurnAround::24-27           32      2.42%     97.73% # Reads before turning the bus around for writes
system.mem_ctrls1.rdPerTurnAround::28-31            9      0.68%     98.41% # Reads before turning the bus around for writes
system.mem_ctrls1.rdPerTurnAround::32-35            7      0.53%     98.94% # Reads before turning the bus around for writes
system.mem_ctrls1.rdPerTurnAround::36-39            6      0.45%     99.39% # Reads before turning the bus around for writes
system.mem_ctrls1.rdPerTurnAround::40-43            1      0.08%     99.47% # Reads before turning the bus around for writes
system.mem_ctrls1.rdPerTurnAround::44-47            1      0.08%     99.55% # Reads before turning the bus around for writes
system.mem_ctrls1.rdPerTurnAround::48-51            2      0.15%     99.70% # Reads before turning the bus around for writes
system.mem_ctrls1.rdPerTurnAround::52-55            1      0.08%     99.77% # Reads before turning the bus around for writes
system.mem_ctrls1.rdPerTurnAround::68-71            1      0.08%     99.85% # Reads before turning the bus around for writes
system.mem_ctrls1.rdPerTurnAround::72-75            1      0.08%     99.92% # Reads before turning the bus around for writes
system.mem_ctrls1.rdPerTurnAround::76-79            1      0.08%    100.00% # Reads before turning the bus around for writes
system.mem_ctrls1.rdPerTurnAround::total         1321                       # Reads before turning the bus around for writes
system.mem_ctrls1.wrPerTurnAround::samples         1321                       # Writes before turning the bus around for reads
system.mem_ctrls1.wrPerTurnAround::mean     20.058289                       # Writes before turning the bus around for reads
system.mem_ctrls1.wrPerTurnAround::gmean    18.460436                       # Writes before turning the bus around for reads
system.mem_ctrls1.wrPerTurnAround::stdev    11.753997                       # Writes before turning the bus around for reads
system.mem_ctrls1.wrPerTurnAround::16-19         1095     82.89%     82.89% # Writes before turning the bus around for reads
system.mem_ctrls1.wrPerTurnAround::20-23           15      1.14%     84.03% # Writes before turning the bus around for reads
system.mem_ctrls1.wrPerTurnAround::24-27           28      2.12%     86.15% # Writes before turning the bus around for reads
system.mem_ctrls1.wrPerTurnAround::28-31           57      4.31%     90.46% # Writes before turning the bus around for reads
system.mem_ctrls1.wrPerTurnAround::32-35           26      1.97%     92.43% # Writes before turning the bus around for reads
system.mem_ctrls1.wrPerTurnAround::36-39           16      1.21%     93.64% # Writes before turning the bus around for reads
system.mem_ctrls1.wrPerTurnAround::40-43           15      1.14%     94.78% # Writes before turning the bus around for reads
system.mem_ctrls1.wrPerTurnAround::44-47           14      1.06%     95.84% # Writes before turning the bus around for reads
system.mem_ctrls1.wrPerTurnAround::48-51           23      1.74%     97.58% # Writes before turning the bus around for reads
system.mem_ctrls1.wrPerTurnAround::52-55            4      0.30%     97.88% # Writes before turning the bus around for reads
system.mem_ctrls1.wrPerTurnAround::56-59            3      0.23%     98.11% # Writes before turning the bus around for reads
system.mem_ctrls1.wrPerTurnAround::60-63            3      0.23%     98.33% # Writes before turning the bus around for reads
system.mem_ctrls1.wrPerTurnAround::64-67            4      0.30%     98.64% # Writes before turning the bus around for reads
system.mem_ctrls1.wrPerTurnAround::68-71            5      0.38%     99.02% # Writes before turning the bus around for reads
system.mem_ctrls1.wrPerTurnAround::72-75            1      0.08%     99.09% # Writes before turning the bus around for reads
system.mem_ctrls1.wrPerTurnAround::76-79            1      0.08%     99.17% # Writes before turning the bus around for reads
system.mem_ctrls1.wrPerTurnAround::80-83            3      0.23%     99.39% # Writes before turning the bus around for reads
system.mem_ctrls1.wrPerTurnAround::84-87            1      0.08%     99.47% # Writes before turning the bus around for reads
system.mem_ctrls1.wrPerTurnAround::96-99            1      0.08%     99.55% # Writes before turning the bus around for reads
system.mem_ctrls1.wrPerTurnAround::100-103            2      0.15%     99.70% # Writes before turning the bus around for reads
system.mem_ctrls1.wrPerTurnAround::116-119            1      0.08%     99.77% # Writes before turning the bus around for reads
system.mem_ctrls1.wrPerTurnAround::120-123            2      0.15%     99.92% # Writes before turning the bus around for reads
system.mem_ctrls1.wrPerTurnAround::128-131            1      0.08%    100.00% # Writes before turning the bus around for reads
system.mem_ctrls1.wrPerTurnAround::total         1321                       # Writes before turning the bus around for reads
system.mem_ctrls1.totQLat                  1255093497                       # Total ticks spent queuing
system.mem_ctrls1.totMemAccLat             1617455997                       # Total ticks spent from burst creation until serviced by the DRAM
system.mem_ctrls1.totBusLat                  96630000                       # Total ticks spent in databus transfers
system.mem_ctrls1.avgQLat                    64943.26                       # Average queueing delay per DRAM burst
system.mem_ctrls1.avgBusLat                   5000.00                       # Average bus latency per DRAM burst
system.mem_ctrls1.avgMemAccLat               83693.26                       # Average memory access latency per DRAM burst
system.mem_ctrls1.avgRdBW                        3.86                       # Average DRAM read bandwidth in MiByte/s
system.mem_ctrls1.avgWrBW                        5.29                       # Average achieved write bandwidth in MiByte/s
system.mem_ctrls1.avgRdBWSys                     3.91                       # Average system read bandwidth in MiByte/s
system.mem_ctrls1.avgWrBWSys                     5.29                       # Average system write bandwidth in MiByte/s
system.mem_ctrls1.peakBW                     12800.00                       # Theoretical peak bandwidth in MiByte/s
system.mem_ctrls1.busUtil                        0.07                       # Data bus utilization in percentage
system.mem_ctrls1.busUtilRead                    0.03                       # Data bus utilization in percentage for reads
system.mem_ctrls1.busUtilWrite                   0.04                       # Data bus utilization in percentage for writes
system.mem_ctrls1.avgRdQLen                      1.00                       # Average read queue length when enqueuing
system.mem_ctrls1.avgWrQLen                     24.95                       # Average write queue length when enqueuing
system.mem_ctrls1.readRowHits                   13717                       # Number of row buffer hits during reads
system.mem_ctrls1.writeRowHits                  20256                       # Number of row buffer hits during writes
system.mem_ctrls1.readRowHitRate                70.98                       # Row buffer hit rate for reads
system.mem_ctrls1.writeRowHitRate               76.43                       # Row buffer hit rate for writes
system.mem_ctrls1.avgGap                   6012469.21                       # Average gap between requests
system.mem_ctrls1.pageHitRate                   74.13                       # Row buffer hit rate, read and write combined
system.mem_ctrls1_0.actEnergy                82302780                       # Energy for activate commands per rank (pJ)
system.mem_ctrls1_0.preEnergy                43744965                       # Energy for precharge commands per rank (pJ)
system.mem_ctrls1_0.readEnergy              190837920                       # Energy for read commands per rank (pJ)
system.mem_ctrls1_0.writeEnergy              91992060                       # Energy for write commands per rank (pJ)
system.mem_ctrls1_0.refreshEnergy        7381826400.000002                       # Energy for refresh commands per rank (pJ)
system.mem_ctrls1_0.actBackEnergy          2568504360                       # Energy for active background per rank (pJ)
system.mem_ctrls1_0.preBackEnergy           441300480                       # Energy for precharge background per rank (pJ)
system.mem_ctrls1_0.actPowerDownEnergy    17579338080                       # Energy for active power-down per rank (pJ)
system.mem_ctrls1_0.prePowerDownEnergy    10637159040                       # Energy for precharge power-down per rank (pJ)
system.mem_ctrls1_0.selfRefreshEnergy    1314276372015                       # Energy for self refresh per rank (pJ)
system.mem_ctrls1_0.totalEnergy          1353295332840                       # Total energy per rank (pJ)
system.mem_ctrls1_0.averagePower           244.158857                       # Core power per rank (mW)
system.mem_ctrls1_0.totalIdleTime        274143932000                       # Total Idle time Per DRAM Rank
system.mem_ctrls1_0.memoryStateTime::IDLE    363098500                       # Time in different power states
system.mem_ctrls1_0.memoryStateTime::REF   1243212000                       # Time in different power states
system.mem_ctrls1_0.memoryStateTime::SREF 295336750000                       # Time in different power states
system.mem_ctrls1_0.memoryStateTime::PRE_PDN  11288182000                       # Time in different power states
system.mem_ctrls1_0.memoryStateTime::ACT   1676411500                       # Time in different power states
system.mem_ctrls1_0.memoryStateTime::ACT_PDN  14180179500                       # Time in different power states
system.mem_ctrls1_1.actEnergy                72520980                       # Energy for activate commands per rank (pJ)
system.mem_ctrls1_1.preEnergy                38545815                       # Energy for precharge commands per rank (pJ)
system.mem_ctrls1_1.readEnergy              188367480                       # Energy for read commands per rank (pJ)
system.mem_ctrls1_1.writeEnergy              87930900                       # Energy for write commands per rank (pJ)
system.mem_ctrls1_1.refreshEnergy        6933753840.000002                       # Energy for refresh commands per rank (pJ)
system.mem_ctrls1_1.actBackEnergy          2498192580                       # Energy for active background per rank (pJ)
system.mem_ctrls1_1.preBackEnergy           390567840                       # Energy for precharge background per rank (pJ)
system.mem_ctrls1_1.actPowerDownEnergy    16832785140                       # Energy for active power-down per rank (pJ)
system.mem_ctrls1_1.prePowerDownEnergy     9644733120                       # Energy for precharge power-down per rank (pJ)
system.mem_ctrls1_1.selfRefreshEnergy    1315269101430                       # Energy for self refresh per rank (pJ)
system.mem_ctrls1_1.totalEnergy          1351958057265                       # Total energy per rank (pJ)
system.mem_ctrls1_1.averagePower           243.917588                       # Core power per rank (mW)
system.mem_ctrls1_1.totalIdleTime        273541518500                       # Total Idle time Per DRAM Rank
system.mem_ctrls1_1.memoryStateTime::IDLE    338434750                       # Time in different power states
system.mem_ctrls1_1.memoryStateTime::REF   1268108000                       # Time in different power states
system.mem_ctrls1_1.memoryStateTime::SREF 294914814000                       # Time in different power states
system.mem_ctrls1_1.memoryStateTime::PRE_PDN  11524776750                       # Time in different power states
system.mem_ctrls1_1.memoryStateTime::ACT   1726303750                       # Time in different power states
system.mem_ctrls1_1.memoryStateTime::ACT_PDN  14088849250                       # Time in different power states
system.mem_ctrls2.pwrStateResidencyTicks::UNDEFINED 5542683773500                       # Cumulative time (in ticks) in various power states
system.mem_ctrls2.bytes_read::ruby.dir_cntrl2      1251072                       # Number of bytes read from this memory
system.mem_ctrls2.bytes_read::total           1251072                       # Number of bytes read from this memory
system.mem_ctrls2.bytes_written::ruby.dir_cntrl2      1677184                       # Number of bytes written to this memory
system.mem_ctrls2.bytes_written::total        1677184                       # Number of bytes written to this memory
system.mem_ctrls2.num_reads::ruby.dir_cntrl2        19548                       # Number of read requests responded to by this memory
system.mem_ctrls2.num_reads::total              19548                       # Number of read requests responded to by this memory
system.mem_ctrls2.num_writes::ruby.dir_cntrl2        26206                       # Number of write requests responded to by this memory
system.mem_ctrls2.num_writes::total             26206                       # Number of write requests responded to by this memory
system.mem_ctrls2.bw_read::ruby.dir_cntrl2      3903012                       # Total read bandwidth from this memory (bytes/s)
system.mem_ctrls2.bw_read::total              3903012                       # Total read bandwidth from this memory (bytes/s)
system.mem_ctrls2.bw_write::ruby.dir_cntrl2      5232368                       # Write bandwidth from this memory (bytes/s)
system.mem_ctrls2.bw_write::total             5232368                       # Write bandwidth from this memory (bytes/s)
system.mem_ctrls2.bw_total::ruby.dir_cntrl2      9135379                       # Total bandwidth to/from this memory (bytes/s)
system.mem_ctrls2.bw_total::total             9135379                       # Total bandwidth to/from this memory (bytes/s)
system.mem_ctrls2.readReqs                      19548                       # Number of read requests accepted
system.mem_ctrls2.writeReqs                     26206                       # Number of write requests accepted
system.mem_ctrls2.readBursts                    19548                       # Number of DRAM read bursts, including those serviced by the write queue
system.mem_ctrls2.writeBursts                   26206                       # Number of DRAM write bursts, including those merged in the write queue
system.mem_ctrls2.bytesReadDRAM               1235392                       # Total number of bytes read from DRAM
system.mem_ctrls2.bytesReadWrQ                  15680                       # Total number of bytes read from write queue
system.mem_ctrls2.bytesWritten                1676800                       # Total number of bytes written to DRAM
system.mem_ctrls2.bytesReadSys                1251072                       # Total read bytes from the system interface side
system.mem_ctrls2.bytesWrittenSys             1677184                       # Total written bytes from the system interface side
system.mem_ctrls2.servicedByWrQ                   245                       # Number of DRAM read bursts serviced by the write queue
system.mem_ctrls2.mergedWrBursts                    4                       # Number of DRAM write bursts merged with an existing one
system.mem_ctrls2.neitherReadNorWriteReqs            0                       # Number of requests that are neither read nor write
system.mem_ctrls2.perBankRdBursts::0             1295                       # Per bank write bursts
system.mem_ctrls2.perBankRdBursts::1             1241                       # Per bank write bursts
system.mem_ctrls2.perBankRdBursts::2             1316                       # Per bank write bursts
system.mem_ctrls2.perBankRdBursts::3             1311                       # Per bank write bursts
system.mem_ctrls2.perBankRdBursts::4             1249                       # Per bank write bursts
system.mem_ctrls2.perBankRdBursts::5             1148                       # Per bank write bursts
system.mem_ctrls2.perBankRdBursts::6             1094                       # Per bank write bursts
system.mem_ctrls2.perBankRdBursts::7             1086                       # Per bank write bursts
system.mem_ctrls2.perBankRdBursts::8             1123                       # Per bank write bursts
system.mem_ctrls2.perBankRdBursts::9             1073                       # Per bank write bursts
system.mem_ctrls2.perBankRdBursts::10            1172                       # Per bank write bursts
system.mem_ctrls2.perBankRdBursts::11            1176                       # Per bank write bursts
system.mem_ctrls2.perBankRdBursts::12            1239                       # Per bank write bursts
system.mem_ctrls2.perBankRdBursts::13            1231                       # Per bank write bursts
system.mem_ctrls2.perBankRdBursts::14            1238                       # Per bank write bursts
system.mem_ctrls2.perBankRdBursts::15            1311                       # Per bank write bursts
system.mem_ctrls2.perBankWrBursts::0             1796                       # Per bank write bursts
system.mem_ctrls2.perBankWrBursts::1             1625                       # Per bank write bursts
system.mem_ctrls2.perBankWrBursts::2             1644                       # Per bank write bursts
system.mem_ctrls2.perBankWrBursts::3             1564                       # Per bank write bursts
system.mem_ctrls2.perBankWrBursts::4             1483                       # Per bank write bursts
system.mem_ctrls2.perBankWrBursts::5             1573                       # Per bank write bursts
system.mem_ctrls2.perBankWrBursts::6             1560                       # Per bank write bursts
system.mem_ctrls2.perBankWrBursts::7             1680                       # Per bank write bursts
system.mem_ctrls2.perBankWrBursts::8             1715                       # Per bank write bursts
system.mem_ctrls2.perBankWrBursts::9             1679                       # Per bank write bursts
system.mem_ctrls2.perBankWrBursts::10            1592                       # Per bank write bursts
system.mem_ctrls2.perBankWrBursts::11            1694                       # Per bank write bursts
system.mem_ctrls2.perBankWrBursts::12            1727                       # Per bank write bursts
system.mem_ctrls2.perBankWrBursts::13            1807                       # Per bank write bursts
system.mem_ctrls2.perBankWrBursts::14            1555                       # Per bank write bursts
system.mem_ctrls2.perBankWrBursts::15            1506                       # Per bank write bursts
[...]
system.ruby.L1Cache_Controller.SM.Fwd_GETX::total       120465                      
system.ruby.L1Cache_Controller.M_I.WB_Ack |      553972    100.00%    100.00% |           0      0.00%    100.00% |           0      0.00%    100.00% |           0      0.00%    100.00% |           0      0.00%    100.00% |           0      0.00%    100.00% |           0      0.00%    100.00% |           0      0.00%    100.00%
system.ruby.L1Cache_Controller.M_I.WB_Ack::total       553972                      
system.ruby.L1Cache_Controller.PF_IS.Load |         746    100.00%    100.00% |           0      0.00%    100.00% |           0      0.00%    100.00% |           0      0.00%    100.00% |           0      0.00%    100.00% |           0      0.00%    100.00% |           0      0.00%    100.00% |           0      0.00%    100.00%
system.ruby.L1Cache_Controller.PF_IS.Load::total          746                      
system.ruby.L1Cache_Controller.PF_IS.Ifetch |          81    100.00%    100.00% |           0      0.00%    100.00% |           0      0.00%    100.00% |           0      0.00%    100.00% |           0      0.00%    100.00% |           0      0.00%    100.00% |           0      0.00%    100.00% |           0      0.00%    100.00%
system.ruby.L1Cache_Controller.PF_IS.Ifetch::total           81                      
system.ruby.L1Cache_Controller.PF_IS.Store |           1    100.00%    100.00% |           0      0.00%    100.00% |           0      0.00%    100.00% |           0      0.00%    100.00% |           0      0.00%    100.00% |           0      0.00%    100.00% |           0      0.00%    100.00% |           0      0.00%    100.00%
system.ruby.L1Cache_Controller.PF_IS.Store::total            1                      
system.ruby.L1Cache_Controller.PF_IS.L1_Replacement |           1    100.00%    100.00% |           0      0.00%    100.00% |           0      0.00%    100.00% |           0      0.00%    100.00% |           0      0.00%    100.00% |           0      0.00%    100.00% |           0      0.00%    100.00% |           0      0.00%    100.00%
system.ruby.L1Cache_Controller.PF_IS.L1_Replacement::total            1                      
system.ruby.L1Cache_Controller.PF_IS.Data_Exclusive |       54015    100.00%    100.00% |           0      0.00%    100.00% |           0      0.00%    100.00% |           0      0.00%    100.00% |           0      0.00%    100.00% |           0      0.00%    100.00% |           0      0.00%    100.00% |           0      0.00%    100.00%
system.ruby.L1Cache_Controller.PF_IS.Data_Exclusive::total        54015                      
system.ruby.L1Cache_Controller.PF_IS.Data_all_Acks |        9090    100.00%    100.00% |           0      0.00%    100.00% |           0      0.00%    100.00% |           0      0.00%    100.00% |           0      0.00%    100.00% |           0      0.00%    100.00% |           0      0.00%    100.00% |           0      0.00%    100.00%
system.ruby.L1Cache_Controller.PF_IS.Data_all_Acks::total         9090                      
system.ruby.L1Cache_Controller.PF_IM.Store |        1514    100.00%    100.00% |           0      0.00%    100.00% |           0      0.00%    100.00% |           0      0.00%    100.00% |           0      0.00%    100.00% |           0      0.00%    100.00% |           0      0.00%    100.00% |           0      0.00%    100.00%
system.ruby.L1Cache_Controller.PF_IM.Store::total         1514                      
system.ruby.L1Cache_Controller.PF_IM.Data_all_Acks |       57483    100.00%    100.00% |           0      0.00%    100.00% |           0      0.00%    100.00% |           0      0.00%    100.00% |           0      0.00%    100.00% |           0      0.00%    100.00% |           0      0.00%    100.00% |           0      0.00%    100.00%
system.ruby.L1Cache_Controller.PF_IM.Data_all_Acks::total        57483                      
system.ruby.L2Cache_Controller.L1_GET_INSTR |       78327     13.12%     13.12% |       69239     11.60%     24.72% |       70894     11.88%     36.59% |       81291     13.62%     50.21% |       71139     11.92%     62.13% |       79249     13.27%     75.40% |       79110     13.25%     88.65% |       67738     11.35%    100.00%
system.ruby.L2Cache_Controller.L1_GET_INSTR::total       596987                      
system.ruby.L2Cache_Controller.L1_GETS   |       97814     15.68%     15.68% |       76223     12.22%     27.90% |       78109     12.52%     40.42% |       76601     12.28%     52.70% |       73856     11.84%     64.54% |       72322     11.59%     76.14% |       72573     11.63%     87.77% |       76278     12.23%    100.00%
system.ruby.L2Cache_Controller.L1_GETS::total       623776                      
system.ruby.L2Cache_Controller.L1_GETX   |       76986     13.89%     13.89% |       66792     12.05%     25.94% |       69642     12.56%     38.50% |       68538     12.36%     50.86% |       66739     12.04%     62.90% |       69578     12.55%     75.45% |       67481     12.17%     87.63% |       68597     12.37%    100.00%
system.ruby.L2Cache_Controller.L1_GETX::total       554353                      
system.ruby.L2Cache_Controller.L1_PUTX   |      232114     14.03%     14.03% |      198822     12.02%     26.05% |      204155     12.34%     38.39% |      211656     12.79%     51.18% |      197490     11.94%     63.12% |      207384     12.54%     75.66% |      205162     12.40%     88.06% |      197523     11.94%    100.00%
system.ruby.L2Cache_Controller.L1_PUTX::total      1654306                      
system.ruby.L2Cache_Controller.L2_Replacement |       17117     12.54%     12.54% |       17276     12.66%     25.20% |       16974     12.43%     37.63% |       17189     12.59%     50.22% |       16983     12.44%     62.66% |       17148     12.56%     75.22% |       16847     12.34%     87.57% |       16973     12.43%    100.00%
system.ruby.L2Cache_Controller.L2_Replacement::total       136507                      
system.ruby.L2Cache_Controller.L2_Replacement_clean |         856     13.21%     13.21% |         811     12.52%     25.73% |         861     13.29%     39.02% |         799     12.33%     51.36% |         812     12.53%     63.89% |         770     11.89%     75.78% |         766     11.82%     87.60% |         803     12.40%    100.00%
system.ruby.L2Cache_Controller.L2_Replacement_clean::total         6478                      
system.ruby.L2Cache_Controller.Mem_Data  |       19855     12.68%     12.68% |       19597     12.52%     25.20% |       19548     12.49%     37.68% |       19520     12.47%     50.15% |       19501     12.46%     62.61% |       19515     12.46%     75.07% |       19509     12.46%     87.53% |       19517     12.47%    100.00%
system.ruby.L2Cache_Controller.Mem_Data::total       156562                      
system.ruby.L2Cache_Controller.Mem_Ack   |       18486     12.73%     12.73% |       18349     12.63%     25.36% |       18083     12.45%     37.81% |       18237     12.55%     50.36% |       18044     12.42%     62.78% |       18168     12.51%     75.29% |       17864     12.30%     87.59% |       18033     12.41%    100.00%
system.ruby.L2Cache_Controller.Mem_Ack::total       145264                      
system.ruby.L2Cache_Controller.WB_Data   |         258     77.95%     77.95% |          10      3.02%     80.97% |          11      3.32%     84.29% |          10      3.02%     87.31% |           6      1.81%     89.12% |          11      3.32%     92.45% |          13      3.93%     96.37% |          12      3.63%    100.00%
system.ruby.L2Cache_Controller.WB_Data::total          331                      
system.ruby.L2Cache_Controller.Ack_all   |         323     13.19%     13.19% |         316     12.90%     26.09% |         327     13.35%     39.44% |         293     11.96%     51.41% |         317     12.94%     64.35% |         296     12.09%     76.44% |         270     11.02%     87.46% |         307     12.54%    100.00%
system.ruby.L2Cache_Controller.Ack_all::total         2449                      
system.ruby.L2Cache_Controller.Unblock   |      174800     14.84%     14.84% |      143014     12.14%     26.98% |      147675     12.54%     39.51% |      145111     12.32%     51.83% |      140594     11.93%     63.77% |      141897     12.05%     75.81% |      140048     11.89%     87.70% |      144874     12.30%    100.00%
system.ruby.L2Cache_Controller.Unblock::total      1178013                      
system.ruby.L2Cache_Controller.MEM_Inv   |        1026     22.51%     22.51% |         524     11.50%     34.01% |         496     10.88%     44.89% |         498     10.93%     55.81% |         498     10.93%     66.74% |         500     10.97%     77.71% |         502     11.01%     88.72% |         514     11.28%    100.00%
system.ruby.L2Cache_Controller.MEM_Inv::total         4558                      
system.ruby.L2Cache_Controller.NP.L1_GET_INSTR |         542     12.33%     12.33% |         561     12.76%     25.10% |         568     12.92%     38.02% |         534     12.15%     50.17% |         531     12.08%     62.25% |         548     12.47%     74.72% |         557     12.67%     87.39% |         554     12.61%    100.00%
system.ruby.L2Cache_Controller.NP.L1_GET_INSTR::total         4395                      
system.ruby.L2Cache_Controller.NP.L1_GETS |        6095     12.97%     12.97% |        5806     12.35%     25.32% |        5834     12.41%     37.74% |        5964     12.69%     50.43% |        5780     12.30%     62.73% |        5942     12.64%     75.37% |        5877     12.51%     87.87% |        5699     12.13%    100.00%
system.ruby.L2Cache_Controller.NP.L1_GETS::total        46997                      
system.ruby.L2Cache_Controller.NP.L1_GETX |       13218     12.57%     12.57% |       13230     12.58%     25.15% |       13146     12.50%     37.65% |       13022     12.38%     50.03% |       13190     12.54%     62.57% |       13025     12.38%     74.96% |       13075     12.43%     87.39% |       13264     12.61%    100.00%
system.ruby.L2Cache_Controller.NP.L1_GETX::total       105170                      
system.ruby.L2Cache_Controller.SS.L1_GET_INSTR |       77783     13.13%     13.13% |       68678     11.59%     24.72% |       70323     11.87%     36.58% |       80757     13.63%     50.21% |       70607     11.92%     62.13% |       78697     13.28%     75.41% |       78551     13.26%     88.66% |       67184     11.34%    100.00%
system.ruby.L2Cache_Controller.SS.L1_GET_INSTR::total       592580                      
system.ruby.L2Cache_Controller.SS.L1_GETS |           0      0.00%      0.00% |           1      0.86%      0.86% |          76     65.52%     66.38% |          28     24.14%     90.52% |           1      0.86%     91.38% |           3      2.59%     93.97% |           6      5.17%     99.14% |           1      0.86%    100.00%
system.ruby.L2Cache_Controller.SS.L1_GETS::total          116                      
system.ruby.L2Cache_Controller.SS.L1_PUTX |       78327     13.12%     13.12% |       69240     11.60%     24.71% |       70970     11.89%     36.60% |       81320     13.62%     50.22% |       71140     11.91%     62.13% |       79252     13.27%     75.41% |       79116     13.25%     88.66% |       67739     11.34%    100.00%
system.ruby.L2Cache_Controller.SS.L1_PUTX::total       597104                      
system.ruby.L2Cache_Controller.SS.L2_Replacement_clean |         320     13.13%     13.13% |         313     12.84%     25.97% |         325     13.34%     39.31% |         292     11.98%     51.29% |         316     12.97%     64.26% |         296     12.15%     76.41% |         269     11.04%     87.44% |         306     12.56%    100.00%
system.ruby.L2Cache_Controller.SS.L2_Replacement_clean::total         2437                      
system.ruby.L2Cache_Controller.M.L1_GET_INSTR |           2     16.67%     16.67% |           0      0.00%     16.67% |           3     25.00%     41.67% |           0      0.00%     41.67% |           1      8.33%     50.00% |           4     33.33%     83.33% |           2     16.67%    100.00% |           0      0.00%    100.00%
system.ruby.L2Cache_Controller.M.L1_GET_INSTR::total           12                      
system.ruby.L2Cache_Controller.M.L1_GETS |       91719     15.91%     15.91% |       70416     12.21%     28.12% |       72199     12.52%     40.64% |       70609     12.24%     52.88% |       68075     11.80%     64.69% |       66377     11.51%     76.20% |       66690     11.56%     87.76% |       70578     12.24%    100.00%
system.ruby.L2Cache_Controller.M.L1_GETS::total       576663                      
system.ruby.L2Cache_Controller.M.L1_GETX |       43016     13.09%     13.09% |       40144     12.21%     25.30% |       42020     12.78%     38.08% |       40753     12.40%     50.48% |       39312     11.96%     62.44% |       42799     13.02%     75.46% |       40418     12.30%     87.75% |       40256     12.25%    100.00%
system.ruby.L2Cache_Controller.M.L1_GETX::total       328718                      
system.ruby.L2Cache_Controller.M.L2_Replacement |       17117     12.54%     12.54% |       17276     12.66%     25.20% |       16974     12.43%     37.63% |       17189     12.59%     50.22% |       16983     12.44%     62.66% |       17148     12.56%     75.22% |       16847     12.34%     87.57% |       16973     12.43%    100.00%
system.ruby.L2Cache_Controller.M.L2_Replacement::total       136507                      
system.ruby.L2Cache_Controller.M.L2_Replacement_clean |         536     13.26%     13.26% |         498     12.32%     25.59% |         536     13.26%     38.85% |         507     12.55%     51.40% |         496     12.27%     63.67% |         474     11.73%     75.40% |         497     12.30%     87.70% |         497     12.30%    100.00%
system.ruby.L2Cache_Controller.M.L2_Replacement_clean::total         4041                      
system.ruby.L2Cache_Controller.M.MEM_Inv |         252     13.02%     13.02% |         249     12.86%     25.88% |         235     12.14%     38.02% |         238     12.29%     50.31% |         242     12.50%     62.81% |         239     12.35%     75.15% |         237     12.24%     87.40% |         244     12.60%    100.00%
system.ruby.L2Cache_Controller.M.MEM_Inv::total         1936                      
system.ruby.L2Cache_Controller.MT.L1_GETX |       20752     17.23%     17.23% |       13418     11.14%     28.37% |       14476     12.02%     40.38% |       14763     12.26%     52.64% |       14237     11.82%     64.46% |       13754     11.42%     75.87% |       13988     11.61%     87.48% |       15077     12.52%    100.00%
system.ruby.L2Cache_Controller.MT.L1_GETX::total       120465                      
system.ruby.L2Cache_Controller.MT.L1_PUTX |      153787     14.55%     14.55% |      129582     12.26%     26.80% |      133185     12.60%     39.40% |      130336     12.33%     51.73% |      126350     11.95%     63.68% |      128132     12.12%     75.80% |      126046     11.92%     87.72% |      129784     12.28%    100.00%
system.ruby.L2Cache_Controller.MT.L1_PUTX::total      1057202                      
system.ruby.L2Cache_Controller.MT.MEM_Inv |         261     76.09%     76.09% |          13      3.79%     79.88% |          13      3.79%     83.67% |          11      3.21%     86.88% |           7      2.04%     88.92% |          11      3.21%     92.13% |          14      4.08%     96.21% |          13      3.79%    100.00%
system.ruby.L2Cache_Controller.MT.MEM_Inv::total          343                      
system.ruby.L2Cache_Controller.M_I.Mem_Ack |       18486     12.73%     12.73% |       18349     12.63%     25.36% |       18083     12.45%     37.81% |       18237     12.55%     50.36% |       18044     12.42%     62.78% |       18168     12.51%     75.29% |       17864     12.30%     87.59% |       18033     12.41%    100.00%
system.ruby.L2Cache_Controller.M_I.Mem_Ack::total       145264                      
system.ruby.L2Cache_Controller.M_I.MEM_Inv |         252     13.02%     13.02% |         249     12.86%     25.88% |         235     12.14%     38.02% |         238     12.29%     50.31% |         242     12.50%     62.81% |         239     12.35%     75.15% |         237     12.24%     87.40% |         244     12.60%    100.00%
system.ruby.L2Cache_Controller.M_I.MEM_Inv::total         1936                      
system.ruby.L2Cache_Controller.MT_I.WB_Data |         258     77.95%     77.95% |          10      3.02%     80.97% |          11      3.32%     84.29% |          10      3.02%     87.31% |           6      1.81%     89.12% |          11      3.32%     92.45% |          13      3.93%     96.37% |          12      3.63%    100.00%
system.ruby.L2Cache_Controller.MT_I.WB_Data::total          331                      
system.ruby.L2Cache_Controller.MT_I.Ack_all |           3     25.00%     25.00% |           3     25.00%     50.00% |           2     16.67%     66.67% |           1      8.33%     75.00% |           1      8.33%     83.33% |           0      0.00%     83.33% |           1      8.33%     91.67% |           1      8.33%    100.00%
system.ruby.L2Cache_Controller.MT_I.Ack_all::total           12                      
system.ruby.L2Cache_Controller.MT_I.MEM_Inv |         261     76.09%     76.09% |          13      3.79%     79.88% |          13      3.79%     83.67% |          11      3.21%     86.88% |           7      2.04%     88.92% |          11      3.21%     92.13% |          14      4.08%     96.21% |          13      3.79%    100.00%
system.ruby.L2Cache_Controller.MT_I.MEM_Inv::total          343                      
system.ruby.L2Cache_Controller.I_I.Ack_all |         320     13.13%     13.13% |         313     12.84%     25.97% |         325     13.34%     39.31% |         292     11.98%     51.29% |         316     12.97%     64.26% |         296     12.15%     76.41% |         269     11.04%     87.44% |         306     12.56%    100.00%
system.ruby.L2Cache_Controller.I_I.Ack_all::total         2437                      
system.ruby.L2Cache_Controller.ISS.Mem_Data |        6095     12.97%     12.97% |        5806     12.35%     25.32% |        5834     12.41%     37.74% |        5964     12.69%     50.43% |        5780     12.30%     62.73% |        5942     12.64%     75.37% |        5877     12.51%     87.87% |        5699     12.13%    100.00%
system.ruby.L2Cache_Controller.ISS.Mem_Data::total        46997                      
system.ruby.L2Cache_Controller.IS.Mem_Data |         542     12.33%     12.33% |         561     12.76%     25.10% |         568     12.92%     38.02% |         534     12.15%     50.17% |         531     12.08%     62.25% |         548     12.47%     74.72% |         557     12.67%     87.39% |         554     12.61%    100.00%
system.ruby.L2Cache_Controller.IS.Mem_Data::total         4395                      
system.ruby.L2Cache_Controller.IM.Mem_Data |       13218     12.57%     12.57% |       13230     12.58%     25.15% |       13146     12.50%     37.65% |       13022     12.38%     50.03% |       13190     12.54%     62.57% |       13025     12.38%     74.96% |       13075     12.43%     87.39% |       13264     12.61%    100.00%
system.ruby.L2Cache_Controller.IM.Mem_Data::total       105170                      
system.ruby.L2Cache_Controller.MT_MB.Unblock |      174800     14.84%     14.84% |      143014     12.14%     26.98% |      147675     12.54%     39.51% |      145111     12.32%     51.83% |      140594     11.93%     63.77% |      141897     12.05%     75.81% |      140048     11.89%     87.70% |      144874     12.30%    100.00%
system.ruby.L2Cache_Controller.MT_MB.Unblock::total      1178013                      

---------- End Simulation Statistics   ----------
