
---------- Begin Simulation Statistics ----------
sim_seconds                                  0.319842                       # Number of seconds simulated
sim_ticks                                319841711000                       # Number of ticks simulated
final_tick                               5537661470500                       # Number of ticks from beginning of simulation (restored from checkpoints and never reset)
sim_freq                                 1000000000000                       # Frequency of simulated ticks
host_inst_rate                                 665266                       # Simulator instruction rate (inst/s)
host_op_rate                                  1217566                       # Simulator op (including micro ops) rate (op/s)
host_tick_rate                              709265562                       # Simulator tick rate (ticks/s)
host_mem_usage                                1768304                       # Number of bytes of host memory used
host_seconds                                   450.95                       # Real time elapsed on the host
sim_insts                                   300000000                       # Number of instructions simulated
sim_ops                                     549058866                       # Number of ops (including micro ops) simulated
system.voltage_domain.voltage                       1                       # Voltage in Volts
system.clk_domain.clock                          1000                       # Clock period in ticks
system.mem_ctrls0.pwrStateResidencyTicks::UNDEFINED 5537661470500                       # Cumulative time (in ticks) in various power states
system.mem_ctrls0.bytes_read::ruby.dir_cntrl0      1277504                       # Number of bytes read from this memory
system.mem_ctrls0.bytes_read::total           1277504                       # Number of bytes read from this memory
system.mem_ctrls0.bytes_written::ruby.dir_cntrl0      1702656                       # Number of bytes written to this memory
system.mem_ctrls0.bytes_written::total        1702656                       # Number of bytes written to this memory
system.mem_ctrls0.num_reads::ruby.dir_cntrl0        19961                       # Number of read requests responded to by this memory
system.mem_ctrls0.num_reads::total              19961                       # Number of read requests responded to by this memory
system.mem_ctrls0.num_writes::ruby.dir_cntrl0        26604                       # Number of write requests responded to by this memory
system.mem_ctrls0.num_writes::total             26604                       # Number of write requests responded to by this memory
system.mem_ctrls0.bw_read::ruby.dir_cntrl0      3994176                       # Total read bandwidth from this memory (bytes/s)
system.mem_ctrls0.bw_read::total              3994176                       # Total read bandwidth from this memory (bytes/s)
system.mem_ctrls0.bw_write::ruby.dir_cntrl0      5323433                       # Write bandwidth from this memory (bytes/s)
system.mem_ctrls0.bw_write::total             5323433                       # Write bandwidth from this memory (bytes/s)
system.mem_ctrls0.bw_total::ruby.dir_cntrl0      9317609                       # Total bandwidth to/from this memory (bytes/s)
system.mem_ctrls0.bw_total::total             9317609                       # Total bandwidth to/from this memory (bytes/s)
system.mem_ctrls0.readReqs                      19961                       # Number of read requests accepted
system.mem_ctrls0.writeReqs                     26604                       # Number of write requests accepted
system.mem_ctrls0.readBursts                    19961                       # Number of DRAM read bursts, including those serviced by the write queue
system.mem_ctrls0.writeBursts                   26604                       # Number of DRAM write bursts, including those merged in the write queue
system.mem_ctrls0.bytesReadDRAM               1248704                       # Total number of bytes read from DRAM
system.mem_ctrls0.bytesReadWrQ                  28800                       # Total number of bytes read from write queue
system.mem_ctrls0.bytesWritten                1693248                       # Total number of bytes written to DRAM
system.mem_ctrls0.bytesReadSys                1277504                       # Total read bytes from the system interface side
system.mem_ctrls0.bytesWrittenSys             1702656                       # Total written bytes from the system interface side
system.mem_ctrls0.servicedByWrQ                   450                       # Number of DRAM read bursts serviced by the write queue
system.mem_ctrls0.mergedWrBursts                  144                       # Number of DRAM write bursts merged with an existing one
system.mem_ctrls0.neitherReadNorWriteReqs            0                       # Number of requests that are neither read nor write
system.mem_ctrls0.perBankRdBursts::0             1277                       # Per bank write bursts
system.mem_ctrls0.perBankRdBursts::1             1260                       # Per bank write bursts
system.mem_ctrls0.perBankRdBursts::2             1541                       # Per bank write bursts
system.mem_ctrls0.perBankRdBursts::3             1306                       # Per bank write bursts
system.mem_ctrls0.perBankRdBursts::4             1230                       # Per bank write bursts
system.mem_ctrls0.perBankRdBursts::5             1154                       # Per bank write bursts
system.mem_ctrls0.perBankRdBursts::6             1096                       # Per bank write bursts
system.mem_ctrls0.perBankRdBursts::7             1053                       # Per bank write bursts
system.mem_ctrls0.perBankRdBursts::8             1133                       # Per bank write bursts
system.mem_ctrls0.perBankRdBursts::9             1107                       # Per bank write bursts
system.mem_ctrls0.perBankRdBursts::10            1168                       # Per bank write bursts
system.mem_ctrls0.perBankRdBursts::11            1211                       # Per bank write bursts
system.mem_ctrls0.perBankRdBursts::12            1221                       # Per bank write bursts
system.mem_ctrls0.perBankRdBursts::13            1199                       # Per bank write bursts
system.mem_ctrls0.perBankRdBursts::14            1243                       # Per bank write bursts
system.mem_ctrls0.perBankRdBursts::15            1312                       # Per bank write bursts
system.mem_ctrls0.perBankWrBursts::0             1773                       # Per bank write bursts
system.mem_ctrls0.perBankWrBursts::1             1665                       # Per bank write bursts
system.mem_ctrls0.perBankWrBursts::2             1797                       # Per bank write bursts
system.mem_ctrls0.perBankWrBursts::3             1611                       # Per bank write bursts
system.mem_ctrls0.perBankWrBursts::4             1338                       # Per bank write bursts
system.mem_ctrls0.perBankWrBursts::5             1489                       # Per bank write bursts
system.mem_ctrls0.perBankWrBursts::6             1635                       # Per bank write bursts
system.mem_ctrls0.perBankWrBursts::7             1634                       # Per bank write bursts
system.mem_ctrls0.perBankWrBursts::8             1812                       # Per bank write bursts
system.mem_ctrls0.perBankWrBursts::9             1824                       # Per bank write bursts
system.mem_ctrls0.perBankWrBursts::10            1564                       # Per bank write bursts
system.mem_ctrls0.perBankWrBursts::11            1570                       # Per bank write bursts
system.mem_ctrls0.perBankWrBursts::12            1608                       # Per bank write bursts
system.mem_ctrls0.perBankWrBursts::13            1817                       # Per bank write bursts
system.mem_ctrls0.perBankWrBursts::14            1694                       # Per bank write bursts
system.mem_ctrls0.perBankWrBursts::15            1626                       # Per bank write bursts
system.mem_ctrls0.numRdRetry                        0                       # Number of times read queue was full causing retry
system.mem_ctrls0.numWrRetry                       27                       # Number of times write queue was full causing retry
system.mem_ctrls0.totGap                 273551512500                       # Total gap between requests
system.mem_ctrls0.readPktSize::0                    0                       # Read request sizes (log2)
system.mem_ctrls0.readPktSize::1                    0                       # Read request sizes (log2)
system.mem_ctrls0.readPktSize::2                    0                       # Read request sizes (log2)
system.mem_ctrls0.readPktSize::3                    0                       # Read request sizes (log2)
system.mem_ctrls0.readPktSize::4                    0                       # Read request sizes (log2)
system.mem_ctrls0.readPktSize::5                    0                       # Read request sizes (log2)
system.mem_ctrls0.readPktSize::6                19961                       # Read request sizes (log2)
system.mem_ctrls0.writePktSize::0                   0                       # Write request sizes (log2)
system.mem_ctrls0.writePktSize::1                   0                       # Write request sizes (log2)
system.mem_ctrls0.writePktSize::2                   0                       # Write request sizes (log2)
system.mem_ctrls0.writePktSize::3                   0                       # Write request sizes (log2)
system.mem_ctrls0.writePktSize::4                   0                       # Write request sizes (log2)
system.mem_ctrls0.writePktSize::5                   0                       # Write request sizes (log2)
system.mem_ctrls0.writePktSize::6               26604                       # Write request sizes (log2)
system.mem_ctrls0.rdQLenPdf::0                  19505                       # What read queue length does an incoming req see
system.mem_ctrls0.rdQLenPdf::1                      6                       # What read queue length does an incoming req see
system.mem_ctrls0.rdQLenPdf::2                      0                       # What read queue length does an incoming req see
system.mem_ctrls0.rdQLenPdf::3                      0                       # What read queue length does an incoming req see
system.mem_ctrls0.rdQLenPdf::4                      0                       # What read queue length does an incoming req see
system.mem_ctrls0.rdQLenPdf::5                      0                       # What read queue length does an incoming req see
system.mem_ctrls0.rdQLenPdf::6                      0                       # What read queue length does an incoming req see
system.mem_ctrls0.rdQLenPdf::7                      0                       # What read queue length does an incoming req see
system.mem_ctrls0.rdQLenPdf::8                      0                       # What read queue length does an incoming req see
system.mem_ctrls0.rdQLenPdf::9                      0                       # What read queue length does an incoming req see
system.mem_ctrls0.rdQLenPdf::10                     0                       # What read queue length does an incoming req see
system.mem_ctrls0.rdQLenPdf::11                     0                       # What read queue length does an incoming req see
system.mem_ctrls0.rdQLenPdf::12                     0                       # What read queue length does an incoming req see
system.mem_ctrls0.rdQLenPdf::13                     0                       # What read queue length does an incoming req see
system.mem_ctrls0.rdQLenPdf::14                     0                       # What read queue length does an incoming req see
system.mem_ctrls0.rdQLenPdf::15                     0                       # What read queue length does an incoming req see
system.mem_ctrls0.rdQLenPdf::16                     0                       # What read queue length does an incoming req see
system.mem_ctrls0.rdQLenPdf::17                     0                       # What read queue length does an incoming req see
system.mem_ctrls0.rdQLenPdf::18                     0                       # What read queue length does an incoming req see
system.mem_ctrls0.rdQLenPdf::19                     0                       # What read queue length does an incoming req see
system.mem_ctrls0.rdQLenPdf::20                     0                       # What read queue length does an incoming req see
system.mem_ctrls0.rdQLenPdf::21                     0                       # What read queue length does an incoming req see
system.mem_ctrls0.rdQLenPdf::22                     0                       # What read queue length does an incoming req see
system.mem_ctrls0.rdQLenPdf::23                     0                       # What read queue length does an incoming req see
system.mem_ctrls0.rdQLenPdf::24                     0                       # What read queue length does an incoming req see
system.mem_ctrls0.rdQLenPdf::25                     0                       # What read queue length does an incoming req see
system.mem_ctrls0.rdQLenPdf::26                     0                       # What read queue length does an incoming req see
system.mem_ctrls0.rdQLenPdf::27                     0                       # What read queue length does an incoming req see
system.mem_ctrls0.rdQLenPdf::28                     0                       # What read queue length does an incoming req see
system.mem_ctrls0.rdQLenPdf::29                     0                       # What read queue length does an incoming req see
system.mem_ctrls0.rdQLenPdf::30                     0                       # What read queue length does an incoming req see
system.mem_ctrls0.rdQLenPdf::31                     0                       # What read queue length does an incoming req see
system.mem_ctrls0.wrQLenPdf::0                      0                       # What write queue length does an incoming req see
system.mem_ctrls0.wrQLenPdf::1                      0                       # What write queue length does an incoming req see
system.mem_ctrls0.wrQLenPdf::2                      0                       # What write queue length does an incoming req see
system.mem_ctrls0.wrQLenPdf::3                      0                       # What write queue length does an incoming req see
system.mem_ctrls0.wrQLenPdf::4                      0                       # What write queue length does an incoming req see
system.mem_ctrls0.wrQLenPdf::5                      0                       # What write queue length does an incoming req see
system.mem_ctrls0.wrQLenPdf::6                      0                       # What write queue length does an incoming req see
system.mem_ctrls0.wrQLenPdf::7                      0                       # What write queue length does an incoming req see
system.mem_ctrls0.wrQLenPdf::8                      0                       # What write queue length does an incoming req see
system.mem_ctrls0.wrQLenPdf::9                      0                       # What write queue length does an incoming req see
system.mem_ctrls0.wrQLenPdf::10                     0                       # What write queue length does an incoming req see
system.mem_ctrls0.wrQLenPdf::11                     0                       # What write queue length does an incoming req see
system.mem_ctrls0.wrQLenPdf::12                     0                       # What write queue length does an incoming req see
system.mem_ctrls0.wrQLenPdf::13                     0                       # What write queue length does an incoming req see
system.mem_ctrls0.wrQLenPdf::14                     0                       # What write queue length does an incoming req see
system.mem_ctrls0.wrQLenPdf::15                   229                       # What write queue length does an incoming req see
system.mem_ctrls0.wrQLenPdf::16                   358                       # What write queue length does an incoming req see
system.mem_ctrls0.wrQLenPdf::17                  1414                       # What write queue length does an incoming req see
system.mem_ctrls0.wrQLenPdf::18                  1470                       # What write queue length does an incoming req see
system.mem_ctrls0.wrQLenPdf::19                  1510                       # What write queue length does an incoming req see
system.mem_ctrls0.wrQLenPdf::20                  1518                       # What write queue length does an incoming req see
system.mem_ctrls0.wrQLenPdf::21                  1510                       # What write queue length does an incoming req see
system.mem_ctrls0.wrQLenPdf::22                  1533                       # What write queue length does an incoming req see
system.mem_ctrls0.wrQLenPdf::23                  1525                       # What write queue length does an incoming req see
system.mem_ctrls0.wrQLenPdf::24                  1590                       # What write queue length does an incoming req see
system.mem_ctrls0.wrQLenPdf::25                  1654                       # What write queue length does an incoming req see
system.mem_ctrls0.wrQLenPdf::26                  1534                       # What write queue length does an incoming req see
system.mem_ctrls0.wrQLenPdf::27                  1527                       # What write queue length does an incoming req see
system.mem_ctrls0.wrQLenPdf::28                  1511                       # What write queue length does an incoming req see
system.mem_ctrls0.wrQLenPdf::29                  1480                       # What write queue length does an incoming req see
system.mem_ctrls0.wrQLenPdf::30                  1420                       # What write queue length does an incoming req see
system.mem_ctrls0.wrQLenPdf::31                  1403                       # What write queue length does an incoming req see
system.mem_ctrls0.wrQLenPdf::32                  1388                       # What write queue length does an incoming req see
system.mem_ctrls0.wrQLenPdf::33                   109                       # What write queue length does an incoming req see
system.mem_ctrls0.wrQLenPdf::34                    90                       # What write queue length does an incoming req see
system.mem_ctrls0.wrQLenPdf::35                    95                       # What write queue length does an incoming req see
system.mem_ctrls0.wrQLenPdf::36                    89                       # What write queue length does an incoming req see
system.mem_ctrls0.wrQLenPdf::37                    85                       # What write queue length does an incoming req see
system.mem_ctrls0.wrQLenPdf::38                    84                       # What write queue length does an incoming req see
system.mem_ctrls0.wrQLenPdf::39                    76                       # What write queue length does an incoming req see
system.mem_ctrls0.wrQLenPdf::40                    77                       # What write queue length does an incoming req see
system.mem_ctrls0.wrQLenPdf::41                    76                       # What write queue length does an incoming req see
system.mem_ctrls0.wrQLenPdf::42                    77                       # What write queue length does an incoming req see
system.mem_ctrls0.wrQLenPdf::43                    65                       # What write queue length does an incoming req see
system.mem_ctrls0.wrQLenPdf::44                    67                       # What write queue length does an incoming req see
system.mem_ctrls0.wrQLenPdf::45                    61                       # What write queue length does an incoming req see
system.mem_ctrls0.wrQLenPdf::46                    68                       # What write queue length does an incoming req see
system.mem_ctrls0.wrQLenPdf::47                    72                       # What write queue length does an incoming req see
system.mem_ctrls0.wrQLenPdf::48                    66                       # What write queue length does an incoming req see
system.mem_ctrls0.wrQLenPdf::49                    68                       # What write queue length does an incoming req see
system.mem_ctrls0.wrQLenPdf::50                    63                       # What write queue length does an incoming req see
system.mem_ctrls0.wrQLenPdf::51                    46                       # What write queue length does an incoming req see
system.mem_ctrls0.wrQLenPdf::52                    41                       # What write queue length does an incoming req see
system.mem_ctrls0.wrQLenPdf::53                    40                       # What write queue length does an incoming req see
system.mem_ctrls0.wrQLenPdf::54                    43                       # What write queue length does an incoming req see
system.mem_ctrls0.wrQLenPdf::55                    48                       # What write queue length does an incoming req see
system.mem_ctrls0.wrQLenPdf::56                    51                       # What write queue length does an incoming req see
system.mem_ctrls0.wrQLenPdf::57                    42                       # What write queue length does an incoming req see
system.mem_ctrls0.wrQLenPdf::58                    37                       # What write queue length does an incoming req see
system.mem_ctrls0.wrQLenPdf::59                    32                       # What write queue length does an incoming req see
system.mem_ctrls0.wrQLenPdf::60                    24                       # What write queue length does an incoming req see
system.mem_ctrls0.wrQLenPdf::61                    19                       # What write queue length does an incoming req see
system.mem_ctrls0.wrQLenPdf::62                    27                       # What write queue length does an incoming req see
system.mem_ctrls0.wrQLenPdf::63                    48                       # What write queue length does an incoming req see
system.mem_ctrls0.bytesPerActivate::samples        11943                       # Bytes accessed per row activation
system.mem_ctrls0.bytesPerActivate::mean   246.332747                       # Bytes accessed per row activation
system.mem_ctrls0.bytesPerActivate::gmean   171.712282                       # Bytes accessed per row activation
system.mem_ctrls0.bytesPerActivate::stdev   229.426720                       # Bytes accessed per row activation
system.mem_ctrls0.bytesPerActivate::0-127         3790     31.73%     31.73% # Bytes accessed per row activation
system.mem_ctrls0.bytesPerActivate::128-255         3379     28.29%     60.03% # Bytes accessed per row activation
system.mem_ctrls0.bytesPerActivate::256-383         2046     17.13%     77.16% # Bytes accessed per row activation
system.mem_ctrls0.bytesPerActivate::384-511         1339     11.21%     88.37% # Bytes accessed per row activation
system.mem_ctrls0.bytesPerActivate::512-639          592      4.96%     93.33% # Bytes accessed per row activation
system.mem_ctrls0.bytesPerActivate::640-767          157      1.31%     94.64% # Bytes accessed per row activation
system.mem_ctrls0.bytesPerActivate::768-895           89      0.75%     95.39% # Bytes accessed per row activation
system.mem_ctrls0.bytesPerActivate::896-1023           71      0.59%     95.98% # Bytes accessed per row activation
system.mem_ctrls0.bytesPerActivate::1024-1151          480      4.02%    100.00% # Bytes accessed per row activation
system.mem_ctrls0.bytesPerActivate::total        11943                       # Bytes accessed per row activation
system.mem_ctrls0.rdPerTurnAround::samples         1344                       # Reads before turning the bus around for writes
system.mem_ctrls0.rdPerTurnAround::mean     14.517113                       # Reads before turning the bus around for writes
system.mem_ctrls0.rdPerTurnAround::stdev     7.985169                       # Reads before turning the bus around for writes
system.mem_ctrls0.rdPerTurnAround::0-3            240     17.86%     17.86% # Reads before turning the bus around for writes
system.mem_ctrls0.rdPerTurnAround::4-7             28      2.08%     19.94% # Reads before turning the bus around for writes
system.mem_ctrls0.rdPerTurnAround::8-11            37      2.75%     22.69% # Reads before turning the bus around for writes
system.mem_ctrls0.rdPerTurnAround::12-15           17      1.26%     23.96% # Reads before turning the bus around for writes
system.mem_ctrls0.rdPerTurnAround::16-19          861     64.06%     88.02% # Reads before turning the bus around for writes
system.mem_ctrls0.rdPerTurnAround::20-23          102      7.59%     95.61% # Reads before turning the bus around for writes
system.mem_ctrls0.rdPerTurnAround::24-27           24      1.79%     97.40% # Reads before turning the bus around for writes
system.mem_ctrls0.rdPerTurnAround::28-31           16      1.19%     98.59% # Reads before turning the bus around for writes
system.mem_ctrls0.rdPerTurnAround::32-35            6      0.45%     99.03% # Reads before turning the bus around for writes
system.mem_ctrls0.rdPerTurnAround::36-39            3      0.22%     99.26% # Reads before turning the bus around for writes
system.mem_ctrls0.rdPerTurnAround::40-43            4      0.30%     99.55% # Reads before turning the bus around for writes
system.mem_ctrls0.rdPerTurnAround::52-55            1      0.07%     99.63% # Reads before turning the bus around for writes
system.mem_ctrls0.rdPerTurnAround::56-59            3      0.22%     99.85% # Reads before turning the bus around for writes
system.mem_ctrls0.rdPerTurnAround::72-75            1      0.07%     99.93% # Reads before turning the bus around for writes
system.mem_ctrls0.rdPerTurnAround::80-83            1      0.07%    100.00% # Reads before turning the bus around for writes
system.mem_ctrls0.rdPerTurnAround::total         1344                       # Reads before turning the bus around for writes
system.mem_ctrls0.wrPerTurnAround::samples         1344                       # Writes before turning the bus around for reads
system.mem_ctrls0.wrPerTurnAround::mean     19.685268                       # Writes before turning the bus around for reads
system.mem_ctrls0.wrPerTurnAround::gmean    18.406114                       # Writes before turning the bus around for reads
system.mem_ctrls0.wrPerTurnAround::stdev     9.770862                       # Writes before turning the bus around for reads
system.mem_ctrls0.wrPerTurnAround::16-17         1065     79.24%     79.24% # Writes before turning the bus around for reads
system.mem_ctrls0.wrPerTurnAround::18-19           35      2.60%     81.85% # Writes before turning the bus around for reads
system.mem_ctrls0.wrPerTurnAround::20-21            8      0.60%     82.44% # Writes before turning the bus around for reads
system.mem_ctrls0.wrPerTurnAround::22-23           10      0.74%     83.18% # Writes before turning the bus around for reads
system.mem_ctrls0.wrPerTurnAround::24-25           25      1.86%     85.04% # Writes before turning the bus around for reads
system.mem_ctrls0.wrPerTurnAround::26-27           17      1.26%     86.31% # Writes before turning the bus around for reads
system.mem_ctrls0.wrPerTurnAround::28-29           41      3.05%     89.36% # Writes before turning the bus around for reads
system.mem_ctrls0.wrPerTurnAround::30-31           16      1.19%     90.55% # Writes before turning the bus around for reads
system.mem_ctrls0.wrPerTurnAround::32-33           28      2.08%     92.63% # Writes before turning the bus around for reads
system.mem_ctrls0.wrPerTurnAround::34-35           10      0.74%     93.38% # Writes before turning the bus around for reads
system.mem_ctrls0.wrPerTurnAround::36-37           16      1.19%     94.57% # Writes before turning the bus around for reads
system.mem_ctrls0.wrPerTurnAround::38-39           10      0.74%     95.31% # Writes before turning the bus around for reads
system.mem_ctrls0.wrPerTurnAround::40-41            7      0.52%     95.83% # Writes before turning the bus around for reads
system.mem_ctrls0.wrPerTurnAround::42-43            5      0.37%     96.21% # Writes before turning the bus around for reads
system.mem_ctrls0.wrPerTurnAround::44-45            5      0.37%     96.58% # Writes before turning the bus around for reads
system.mem_ctrls0.wrPerTurnAround::46-47            5      0.37%     96.95% # Writes before turning the bus around for reads
system.mem_ctrls0.wrPerTurnAround::48-49            8      0.60%     97.54% # Writes before turning the bus around for reads
system.mem_ctrls0.wrPerTurnAround::50-51            5      0.37%     97.92% # Writes before turning the bus around for reads
system.mem_ctrls0.wrPerTurnAround::52-53            3      0.22%     98.14% # Writes before turning the bus around for reads
system.mem_ctrls0.wrPerTurnAround::54-55            5      0.37%     98.51% # Writes before turning the bus around for reads
system.mem_ctrls0.wrPerTurnAround::56-57            3      0.22%     98.74% # Writes before turning the bus around for reads
system.mem_ctrls0.wrPerTurnAround::58-59            1      0.07%     98.81% # Writes before turning the bus around for reads
system.mem_ctrls0.wrPerTurnAround::60-61            3      0.22%     99.03% # Writes before turning the bus around for reads
system.mem_ctrls0.wrPerTurnAround::62-63            1      0.07%     99.11% # Writes before turning the bus around for reads
system.mem_ctrls0.wrPerTurnAround::64-65            2      0.15%     99.26% # Writes before turning the bus around for reads
system.mem_ctrls0.wrPerTurnAround::68-69            3      0.22%     99.48% # Writes before turning the bus around for reads
system.mem_ctrls0.wrPerTurnAround::70-71            2      0.15%     99.63% # Writes before turning the bus around for reads
system.mem_ctrls0.wrPerTurnAround::74-75            1      0.07%     99.70% # Writes before turning the bus around for reads
system.mem_ctrls0.wrPerTurnAround::100-101            1      0.07%     99.78% # Writes before turning the bus around for reads
system.mem_ctrls0.wrPerTurnAround::102-103            1      0.07%     99.85% # Writes before turning the bus around for reads
system.mem_ctrls0.wrPerTurnAround::104-105            1      0.07%     99.93% # Writes before turning the bus around for reads
system.mem_ctrls0.wrPerTurnAround::108-109            1      0.07%    100.00% # Writes before turning the bus around for reads
system.mem_ctrls0.wrPerTurnAround::total         1344                       # Writes before turning the bus around for reads
system.mem_ctrls0.totQLat                  1273343749                       # Total ticks spent queuing
system.mem_ctrls0.totMemAccLat             1639174999                       # Total ticks spent from burst creation until serviced by the DRAM
system.mem_ctrls0.totBusLat                  97555000                       # Total ticks spent in databus transfers
system.mem_ctrls0.avgQLat                    65262.86                       # Average queueing delay per DRAM burst
system.mem_ctrls0.avgBusLat                   5000.00                       # Average bus latency per DRAM burst
system.mem_ctrls0.avgMemAccLat               84012.86                       # Average memory access latency per DRAM burst
system.mem_ctrls0.avgRdBW                        3.90                       # Average DRAM read bandwidth in MiByte/s
system.mem_ctrls0.avgWrBW                        5.29                       # Average achieved write bandwidth in MiByte/s
system.mem_ctrls0.avgRdBWSys                     3.99                       # Average system read bandwidth in MiByte/s
system.mem_ctrls0.avgWrBWSys                     5.32                       # Average system write bandwidth in MiByte/s
system.mem_ctrls0.peakBW                     12800.00                       # Theoretical peak bandwidth in MiByte/s
system.mem_ctrls0.busUtil                        0.07                       # Data bus utilization in percentage
system.mem_ctrls0.busUtilRead                    0.03                       # Data bus utilization in percentage for reads
system.mem_ctrls0.busUtilWrite                   0.04                       # Data bus utilization in percentage for writes
system.mem_ctrls0.avgRdQLen                      1.00                       # Average read queue length when enqueuing
system.mem_ctrls0.avgWrQLen                     24.91                       # Average write queue length when enqueuing
system.mem_ctrls0.readRowHits                   13708                       # Number of row buffer hits during reads
system.mem_ctrls0.writeRowHits                  20317                       # Number of row buffer hits during writes
system.mem_ctrls0.readRowHitRate                70.26                       # Row buffer hit rate for reads
system.mem_ctrls0.writeRowHitRate               76.78                       # Row buffer hit rate for writes
system.mem_ctrls0.avgGap                   5874616.40                       # Average gap between requests
system.mem_ctrls0.pageHitRate                   74.01                       # Row buffer hit rate, read and write combined
system.mem_ctrls0_0.actEnergy                83609400                       # Energy for activate commands per rank (pJ)
system.mem_ctrls0_0.preEnergy                44439450                       # Energy for precharge commands per rank (pJ)
system.mem_ctrls0_0.readEnergy              192251640                       # Energy for read commands per rank (pJ)
system.mem_ctrls0_0.writeEnergy              90222480                       # Energy for write commands per rank (pJ)
system.mem_ctrls0_0.refreshEnergy        7621536000.000002                       # Energy for refresh commands per rank (pJ)
system.mem_ctrls0_0.actBackEnergy          2512937910                       # Energy for active background per rank (pJ)
system.mem_ctrls0_0.preBackEnergy           437860800                       # Energy for precharge background per rank (pJ)
system.mem_ctrls0_0.actPowerDownEnergy    18347753370                       # Energy for active power-down per rank (pJ)
system.mem_ctrls0_0.prePowerDownEnergy    10927661280                       # Energy for precharge power-down per rank (pJ)
system.mem_ctrls0_0.selfRefreshEnergy    1312571704125                       # Energy for self refresh per rank (pJ)
system.mem_ctrls0_0.totalEnergy          1352832306075                       # Total energy per rank (pJ)
system.mem_ctrls0_0.averagePower           244.296679                       # Core power per rank (mW)
system.mem_ctrls0_0.totalIdleTime        270364590500                       # Total Idle time Per DRAM Rank
system.mem_ctrls0_0.memoryStateTime::IDLE    344346250                       # Time in different power states
system.mem_ctrls0_0.memoryStateTime::REF   1272350000                       # Time in different power states
system.mem_ctrls0_0.memoryStateTime::SREF 291118386750                       # Time in different power states
system.mem_ctrls0_0.memoryStateTime::PRE_PDN  11303946500                       # Time in different power states
system.mem_ctrls0_0.memoryStateTime::ACT   1565600250                       # Time in different power states
system.mem_ctrls0_0.memoryStateTime::ACT_PDN  15144150750                       # Time in different power states
system.mem_ctrls0_1.actEnergy                72749460                       # Energy for activate commands per rank (pJ)
system.mem_ctrls0_1.preEnergy                38667255                       # Energy for precharge commands per rank (pJ)
system.mem_ctrls0_1.readEnergy              187824840                       # Energy for read commands per rank (pJ)
system.mem_ctrls0_1.writeEnergy              89637840                       # Energy for write commands per rank (pJ)
system.mem_ctrls0_1.refreshEnergy        6706951680.000002                       # Energy for refresh commands per rank (pJ)
system.mem_ctrls0_1.actBackEnergy          2412855600                       # Energy for active background per rank (pJ)
system.mem_ctrls0_1.preBackEnergy           379966560                       # Energy for precharge background per rank (pJ)
system.mem_ctrls0_1.actPowerDownEnergy    16628270280                       # Energy for active power-down per rank (pJ)
system.mem_ctrls0_1.prePowerDownEnergy     9255972000                       # Energy for precharge power-down per rank (pJ)
system.mem_ctrls0_1.selfRefreshEnergy    1314374550690                       # Energy for self refresh per rank (pJ)
system.mem_ctrls0_1.totalEnergy          1350148443075                       # Total energy per rank (pJ)
system.mem_ctrls0_1.averagePower           243.812022                       # Core power per rank (mW)
system.mem_ctrls0_1.totalIdleTime        244114043500                       # Total Idle time Per DRAM Rank
system.mem_ctrls0_1.memoryStateTime::IDLE    342496750                       # Time in different power states
system.mem_ctrls0_1.memoryStateTime::REF   1233440000                       # Time in different power states
system.mem_ctrls0_1.memoryStateTime::SREF 294776740500                       # Time in different power states
system.mem_ctrls0_1.memoryStateTime::PRE_PDN  10946844750                       # Time in different power states
system.mem_ctrls0_1.memoryStateTime::ACT   1651254500                       # Time in different power states
system.mem_ctrls0_1.memoryStateTime::ACT_PDN  14201417250                       # Time in different power states
system.mem_ctrls1.pwrStateResidencyTicks::UNDEFINED 5537661470500                       # Cumulative time (in ticks) in various power states
system.mem_ctrls1.bytes_read::ruby.dir_cntrl1      1253248                       # Number of bytes read from this memory
system.mem_ctrls1.bytes_read::total           1253248                       # Number of bytes read from this memory
system.mem_ctrls1.bytes_written::ruby.dir_cntrl1      1700544                       # Number of bytes written to this memory
system.mem_ctrls1.bytes_written::total        1700544                       # Number of bytes written to this memory
system.mem_ctrls1.num_reads::ruby.dir_cntrl1        19582                       # Number of read requests responded to by this memory
system.mem_ctrls1.num_reads::total              19582                       # Number of read requests responded to by this memory
system.mem_ctrls1.num_writes::ruby.dir_cntrl1        26571                       # Number of write requests responded to by this memory
system.mem_ctrls1.num_writes::total             26571                       # Number of write requests responded to by this memory
system.mem_ctrls1.bw_read::ruby.dir_cntrl1      3918338                       # Total read bandwidth from this memory (bytes/s)
system.mem_ctrls1.bw_read::total              3918338                       # Total read bandwidth from this memory (bytes/s)
system.mem_ctrls1.bw_write::ruby.dir_cntrl1      5316830                       # Write bandwidth from this memory (bytes/s)
system.mem_ctrls1.bw_write::total             5316830                       # Write bandwidth from this memory (bytes/s)
system.mem_ctrls1.bw_total::ruby.dir_cntrl1      9235168                       # Total bandwidth to/from this memory (bytes/s)
system.mem_ctrls1.bw_total::total             9235168                       # Total bandwidth to/from this memory (bytes/s)
system.mem_ctrls1.readReqs                      19582                       # Number of read requests accepted
system.mem_ctrls1.writeReqs                     26571                       # Number of write requests accepted
system.mem_ctrls1.readBursts                    19582                       # Number of DRAM read bursts, including those serviced by the write queue
system.mem_ctrls1.writeBursts                   26571                       # Number of DRAM write bursts, including those merged in the write queue
system.mem_ctrls1.bytesReadDRAM               1236224                       # Total number of bytes read from DRAM
system.mem_ctrls1.bytesReadWrQ                  17024                       # Total number of bytes read from write queue
system.mem_ctrls1.bytesWritten                1700736                       # Total number of bytes written to DRAM
system.mem_ctrls1.bytesReadSys                1253248                       # Total read bytes from the system interface side
system.mem_ctrls1.bytesWrittenSys             1700544                       # Total written bytes from the system interface side
system.mem_ctrls1.servicedByWrQ                   266                       # Number of DRAM read bursts serviced by the write queue
system.mem_ctrls1.mergedWrBursts                    4                       # Number of DRAM write bursts merged with an existing one
system.mem_ctrls1.neitherReadNorWriteReqs            0                       # Number of requests that are neither read nor write
system.mem_ctrls1.perBankRdBursts::0             1276                       # Per bank write bursts
system.mem_ctrls1.perBankRdBursts::1             1251                       # Per bank write bursts
system.mem_ctrls1.perBankRdBursts::2             1329                       # Per bank write bursts
system.mem_ctrls1.perBankRdBursts::3             1305                       # Per bank write bursts
system.mem_ctrls1.perBankRdBursts::4             1235                       # Per bank write bursts
system.mem_ctrls1.perBankRdBursts::5             1161                       # Per bank write bursts
system.mem_ctrls1.perBankRdBursts::6             1097                       # Per bank write bursts
system.mem_ctrls1.perBankRdBursts::7             1063                       # Per bank write bursts
system.mem_ctrls1.perBankRdBursts::8             1128                       # Per bank write bursts
system.mem_ctrls1.perBankRdBursts::9             1092                       # Per bank write bursts
system.mem_ctrls1.perBankRdBursts::10            1169                       # Per bank write bursts
system.mem_ctrls1.perBankRdBursts::11            1209                       # Per bank write bursts
system.mem_ctrls1.perBankRdBursts::12            1224                       # Per bank write bursts
system.mem_ctrls1.perBankRdBursts::13            1210                       # Per bank write bursts
system.mem_ctrls1.perBankRdBursts::14            1250                       # Per bank write bursts
system.mem_ctrls1.perBankRdBursts::15            1317                       # Per bank write bursts
system.mem_ctrls1.perBankWrBursts::0             1769                       # Per bank write bursts
system.mem_ctrls1.perBankWrBursts::1             1663                       # Per bank write bursts
system.mem_ctrls1.perBankWrBursts::2             1694                       # Per bank write bursts
system.mem_ctrls1.perBankWrBursts::3             1641                       # Per bank write bursts
system.mem_ctrls1.perBankWrBursts::4             1361                       # Per bank write bursts
system.mem_ctrls1.perBankWrBursts::5             1531                       # Per bank write bursts
system.mem_ctrls1.perBankWrBursts::6             1700                       # Per bank write bursts
system.mem_ctrls1.perBankWrBursts::7             1646                       # Per bank write bursts
system.mem_ctrls1.perBankWrBursts::8             1814                       # Per bank write bursts
system.mem_ctrls1.perBankWrBursts::9             1810                       # Per bank write bursts
system.mem_ctrls1.perBankWrBursts::10            1608                       # Per bank write bursts
system.mem_ctrls1.perBankWrBursts::11            1574                       # Per bank write bursts
system.mem_ctrls1.perBankWrBursts::12            1611                       # Per bank write bursts
system.mem_ctrls1.perBankWrBursts::13            1821                       # Per bank write bursts
system.mem_ctrls1.perBankWrBursts::14            1707                       # Per bank write bursts
system.mem_ctrls1.perBankWrBursts::15            1624                       # Per bank write bursts
system.mem_ctrls1.numRdRetry                        0                       # Number of times read queue was full causing retry
system.mem_ctrls1.numWrRetry                      114                       # Number of times write queue was full causing retry
system.mem_ctrls1.totGap                 275946133000                       # Total gap between requests
system.mem_ctrls1.readPktSize::0                    0                       # Read request sizes (log2)
system.mem_ctrls1.readPktSize::1                    0                       # Read request sizes (log2)
system.mem_ctrls1.readPktSize::2                    0                       # Read request sizes (log2)
system.mem_ctrls1.readPktSize::3                    0                       # Read request sizes (log2)
system.mem_ctrls1.readPktSize::4                    0                       # Read request sizes (log2)
system.mem_ctrls1.readPktSize::5                    0                       # Read request sizes (log2)
system.mem_ctrls1.readPktSize::6                19582                       # Read request sizes (log2)
system.mem_ctrls1.writePktSize::0                   0                       # Write request sizes (log2)
system.mem_ctrls1.writePktSize::1                   0                       # Write request sizes (log2)
system.mem_ctrls1.writePktSize::2                   0                       # Write request sizes (log2)
system.mem_ctrls1.writePktSize::3                   0                       # Write request sizes (log2)
system.mem_ctrls1.writePktSize::4                   0                       # Write request sizes (log2)
system.mem_ctrls1.writePktSize::5                   0                       # Write request sizes (log2)
system.mem_ctrls1.writePktSize::6               26571                       # Write request sizes (log2)
system.mem_ctrls1.rdQLenPdf::0                  19316                       # What read queue length does an incoming req see
system.mem_ctrls1.rdQLenPdf::1                      0                       # What read queue length does an incoming req see
system.mem_ctrls1.rdQLenPdf::2                      0                       # What read queue length does an incoming req see
system.mem_ctrls1.rdQLenPdf::3                      0                       # What read queue length does an incoming req see
system.mem_ctrls1.rdQLenPdf::4                      0                       # What read queue length does an incoming req see
system.mem_ctrls1.rdQLenPdf::5                      0                       # What read queue length does an incoming req see
system.mem_ctrls1.rdQLenPdf::6                      0                       # What read queue length does an incoming req see
system.mem_ctrls1.rdQLenPdf::7                      0                       # What read queue length does an incoming req see
system.mem_ctrls1.rdQLenPdf::8                      0                       # What read queue length does an incoming req see
system.mem_ctrls1.rdQLenPdf::9                      0                       # What read queue length does an incoming req see
system.mem_ctrls1.rdQLenPdf::10                     0                       # What read queue length does an incoming req see
system.mem_ctrls1.rdQLenPdf::11                     0                       # What read queue length does an incoming req see
system.mem_ctrls1.rdQLenPdf::12                     0                       # What read queue length does an incoming req see
system.mem_ctrls1.rdQLenPdf::13                     0                       # What read queue length does an incoming req see
system.mem_ctrls1.rdQLenPdf::14                     0                       # What read queue length does an incoming req see
system.mem_ctrls1.rdQLenPdf::15                     0                       # What read queue length does an incoming req see
system.mem_ctrls1.rdQLenPdf::16                     0                       # What read queue length does an incoming req see
system.mem_ctrls1.rdQLenPdf::17                     0                       # What read queue length does an incoming req see
system.mem_ctrls1.rdQLenPdf::18                     0                       # What read queue length does an incoming req see
system.mem_ctrls1.rdQLenPdf::19                     0                       # What read queue length does an incoming req see
system.mem_ctrls1.rdQLenPdf::20                     0                       # What read queue length does an incoming req see
system.mem_ctrls1.rdQLenPdf::21                     0                       # What read queue length does an incoming req see
system.mem_ctrls1.rdQLenPdf::22                     0                       # What read queue length does an incoming req see
system.mem_ctrls1.rdQLenPdf::23                     0                       # What read queue length does an incoming req see
system.mem_ctrls1.rdQLenPdf::24                     0                       # What read queue length does an incoming req see
system.mem_ctrls1.rdQLenPdf::25                     0                       # What read queue length does an incoming req see
system.mem_ctrls1.rdQLenPdf::26                     0                       # What read queue length does an incoming req see
system.mem_ctrls1.rdQLenPdf::27                     0                       # What read queue length does an incoming req see
system.mem_ctrls1.rdQLenPdf::28                     0                       # What read queue length does an incoming req see
system.mem_ctrls1.rdQLenPdf::29                     0                       # What read queue length does an incoming req see
system.mem_ctrls1.rdQLenPdf::30                     0                       # What read queue length does an incoming req see
system.mem_ctrls1.rdQLenPdf::31                     0                       # What read queue length does an incoming req see
system.mem_ctrls1.wrQLenPdf::0                      0                       # What write queue length does an incoming req see
system.mem_ctrls1.wrQLenPdf::1                      0                       # What write queue length does an incoming req see
system.mem_ctrls1.wrQLenPdf::2                      0                       # What write queue length does an incoming req see
system.mem_ctrls1.wrQLenPdf::3                      0                       # What write queue length does an incoming req see
system.mem_ctrls1.wrQLenPdf::4                      0                       # What write queue length does an incoming req see
system.mem_ctrls1.wrQLenPdf::5                      0                       # What write queue length does an incoming req see
system.mem_ctrls1.wrQLenPdf::6                      0                       # What write queue length does an incoming req see
system.mem_ctrls1.wrQLenPdf::7                      0                       # What write queue length does an incoming req see
system.mem_ctrls1.wrQLenPdf::8                      0                       # What write queue length does an incoming req see
system.mem_ctrls1.wrQLenPdf::9                      0                       # What write queue length does an incoming req see
system.mem_ctrls1.wrQLenPdf::10                     0                       # What write queue length does an incoming req see
system.mem_ctrls1.wrQLenPdf::11                     0                       # What write queue length does an incoming req see
system.mem_ctrls1.wrQLenPdf::12                     0                       # What write queue length does an incoming req see
system.mem_ctrls1.wrQLenPdf::13                     0                       # What write queue length does an incoming req see
system.mem_ctrls1.wrQLenPdf::14                     0                       # What write queue length does an incoming req see
system.mem_ctrls1.wrQLenPdf::15                   245                       # What write queue length does an incoming req see
system.mem_ctrls1.wrQLenPdf::16                   348                       # What write queue length does an incoming req see
system.mem_ctrls1.wrQLenPdf::17                  1410                       # What write queue length does an incoming req see
system.mem_ctrls1.wrQLenPdf::18                  1448                       # What write queue length does an incoming req see
system.mem_ctrls1.wrQLenPdf::19                  1480                       # What write queue length does an incoming req see
system.mem_ctrls1.wrQLenPdf::20                  1487                       # What write queue length does an incoming req see
system.mem_ctrls1.wrQLenPdf::21                  1469                       # What write queue length does an incoming req see
system.mem_ctrls1.wrQLenPdf::22                  1531                       # What write queue length does an incoming req see
system.mem_ctrls1.wrQLenPdf::23                  1507                       # What write queue length does an incoming req see
system.mem_ctrls1.wrQLenPdf::24                  1583                       # What write queue length does an incoming req see
system.mem_ctrls1.wrQLenPdf::25                  1662                       # What write queue length does an incoming req see
system.mem_ctrls1.wrQLenPdf::26                  1468                       # What write queue length does an incoming req see
system.mem_ctrls1.wrQLenPdf::27                  1406                       # What write queue length does an incoming req see
system.mem_ctrls1.wrQLenPdf::28                  1398                       # What write queue length does an incoming req see
system.mem_ctrls1.wrQLenPdf::29                  1385                       # What write queue length does an incoming req see
system.mem_ctrls1.wrQLenPdf::30                  1360                       # What write queue length does an incoming req see
system.mem_ctrls1.wrQLenPdf::31                  1355                       # What write queue length does an incoming req see
system.mem_ctrls1.wrQLenPdf::32                  1339                       # What write queue length does an incoming req see
system.mem_ctrls1.wrQLenPdf::33                   106                       # What write queue length does an incoming req see
system.mem_ctrls1.wrQLenPdf::34                    97                       # What write queue length does an incoming req see
system.mem_ctrls1.wrQLenPdf::35                    91                       # What write queue length does an incoming req see
system.mem_ctrls1.wrQLenPdf::36                    84                       # What write queue length does an incoming req see
system.mem_ctrls1.wrQLenPdf::37                    84                       # What write queue length does an incoming req see
system.mem_ctrls1.wrQLenPdf::38                    87                       # What write queue length does an incoming req see
system.mem_ctrls1.wrQLenPdf::39                    89                       # What write queue length does an incoming req see
system.mem_ctrls1.wrQLenPdf::40                    91                       # What write queue length does an incoming req see
system.mem_ctrls1.wrQLenPdf::41                    91                       # What write queue length does an incoming req see
system.mem_ctrls1.wrQLenPdf::42                    88                       # What write queue length does an incoming req see
system.mem_ctrls1.wrQLenPdf::43                    79                       # What write queue length does an incoming req see
system.mem_ctrls1.wrQLenPdf::44                    84                       # What write queue length does an incoming req see
system.mem_ctrls1.wrQLenPdf::45                    87                       # What write queue length does an incoming req see
system.mem_ctrls1.wrQLenPdf::46                    92                       # What write queue length does an incoming req see
system.mem_ctrls1.wrQLenPdf::47                    87                       # What write queue length does an incoming req see
system.mem_ctrls1.wrQLenPdf::48                    80                       # What write queue length does an incoming req see
system.mem_ctrls1.wrQLenPdf::49                    72                       # What write queue length does an incoming req see
system.mem_ctrls1.wrQLenPdf::50                    87                       # What write queue length does an incoming req see
system.mem_ctrls1.wrQLenPdf::51                    89                       # What write queue length does an incoming req see
system.mem_ctrls1.wrQLenPdf::52                    86                       # What write queue length does an incoming req see
system.mem_ctrls1.wrQLenPdf::53                    92                       # What write queue length does an incoming req see
system.mem_ctrls1.wrQLenPdf::54                    92                       # What write queue length does an incoming req see
system.mem_ctrls1.wrQLenPdf::55                    88                       # What write queue length does an incoming req see
system.mem_ctrls1.wrQLenPdf::56                    77                       # What write queue length does an incoming req see
system.mem_ctrls1.wrQLenPdf::57                    81                       # What write queue length does an incoming req see
system.mem_ctrls1.wrQLenPdf::58                    76                       # What write queue length does an incoming req see
system.mem_ctrls1.wrQLenPdf::59                    69                       # What write queue length does an incoming req see
system.mem_ctrls1.wrQLenPdf::60                    58                       # What write queue length does an incoming req see
system.mem_ctrls1.wrQLenPdf::61                    55                       # What write queue length does an incoming req see
system.mem_ctrls1.wrQLenPdf::62                    69                       # What write queue length does an incoming req see
system.mem_ctrls1.wrQLenPdf::63                   178                       # What write queue length does an incoming req see
system.mem_ctrls1.bytesPerActivate::samples        11794                       # Bytes accessed per row activation
system.mem_ctrls1.bytesPerActivate::mean   249.021536                       # Bytes accessed per row activation
system.mem_ctrls1.bytesPerActivate::gmean   173.520929                       # Bytes accessed per row activation
system.mem_ctrls1.bytesPerActivate::stdev   230.909341                       # Bytes accessed per row activation
system.mem_ctrls1.bytesPerActivate::0-127         3669     31.11%     31.11% # Bytes accessed per row activation
system.mem_ctrls1.bytesPerActivate::128-255         3378     28.64%     59.75% # Bytes accessed per row activation
system.mem_ctrls1.bytesPerActivate::256-383         1941     16.46%     76.21% # Bytes accessed per row activation
system.mem_ctrls1.bytesPerActivate::384-511         1361     11.54%     87.75% # Bytes accessed per row activation
system.mem_ctrls1.bytesPerActivate::512-639          670      5.68%     93.43% # Bytes accessed per row activation
system.mem_ctrls1.bytesPerActivate::640-767          143      1.21%     94.64% # Bytes accessed per row activation
system.mem_ctrls1.bytesPerActivate::768-895           72      0.61%     95.25% # Bytes accessed per row activation
system.mem_ctrls1.bytesPerActivate::896-1023           74      0.63%     95.88% # Bytes accessed per row activation
system.mem_ctrls1.bytesPerActivate::1024-1151          486      4.12%    100.00% # Bytes accessed per row activation
system.mem_ctrls1.bytesPerActivate::total        11794                       # Bytes accessed per row activation
system.mem_ctrls1.rdPerTurnAround::samples         1330                       # Reads before turning the bus around for writes
system.mem_ctrls1.rdPerTurnAround::mean     14.528571                       # Reads before turning the bus around for writes
system.mem_ctrls1.rdPerTurnAround::stdev     7.728336                       # Reads before turning the bus around for writes
system.mem_ctrls1.rdPerTurnAround::0-3            220     16.54%     16.54% # Reads before turning the bus around for writes
system.mem_ctrls1.rdPerTurnAround::4-7             28      2.11%     18.65% # Reads before turning the bus around for writes
system.mem_ctrls1.rdPerTurnAround::8-11            30      2.26%     20.90% # Reads before turning the bus around for writes
system.mem_ctrls1.rdPerTurnAround::12-15           21      1.58%     22.48% # Reads before turning the bus around for writes
system.mem_ctrls1.rdPerTurnAround::16-19          875     65.79%     88.27% # Reads before turning the bus around for writes
system.mem_ctrls1.rdPerTurnAround::20-23          100      7.52%     95.79% # Reads before turning the bus around for writes
system.mem_ctrls1.rdPerTurnAround::24-27           27      2.03%     97.82% # Reads before turning the bus around for writes
system.mem_ctrls1.rdPerTurnAround::28-31           12      0.90%     98.72% # Reads before turning the bus around for writes
system.mem_ctrls1.rdPerTurnAround::32-35            7      0.53%     99.25% # Reads before turning the bus around for writes
system.mem_ctrls1.rdPerTurnAround::36-39            3      0.23%     99.47% # Reads before turning the bus around for writes
system.mem_ctrls1.rdPerTurnAround::48-51            2      0.15%     99.62% # Reads before turning the bus around for writes
system.mem_ctrls1.rdPerTurnAround::52-55            1      0.08%     99.70% # Reads before turning the bus around for writes
system.mem_ctrls1.rdPerTurnAround::60-63            2      0.15%     99.85% # Reads before turning the bus around for writes
system.mem_ctrls1.rdPerTurnAround::64-67            1      0.08%     99.92% # Reads before turning the bus around for writes
system.mem_ctrls1.rdPerTurnAround::72-75            1      0.08%    100.00% # Reads before turning the bus around for writes
system.mem_ctrls1.rdPerTurnAround::total         1330                       # Reads before turning the bus around for writes
system.mem_ctrls1.wrPerTurnAround::samples         1330                       # Writes before turning the bus around for reads
system.mem_ctrls1.wrPerTurnAround::mean     19.980451                       # Writes before turning the bus around for reads
system.mem_ctrls1.wrPerTurnAround::gmean    18.439730                       # Writes before turning the bus around for reads
system.mem_ctrls1.wrPerTurnAround::stdev    11.432713                       # Writes before turning the bus around for reads
system.mem_ctrls1.wrPerTurnAround::16-19         1104     83.01%     83.01% # Writes before turning the bus around for reads
system.mem_ctrls1.wrPerTurnAround::20-23           15      1.13%     84.14% # Writes before turning the bus around for reads
system.mem_ctrls1.wrPerTurnAround::24-27           28      2.11%     86.24% # Writes before turning the bus around for reads
system.mem_ctrls1.wrPerTurnAround::28-31           41      3.08%     89.32% # Writes before turning the bus around for reads
system.mem_ctrls1.wrPerTurnAround::32-35           49      3.68%     93.01% # Writes before turning the bus around for reads
system.mem_ctrls1.wrPerTurnAround::36-39           15      1.13%     94.14% # Writes before turning the bus around for reads
system.mem_ctrls1.wrPerTurnAround::40-43           16      1.20%     95.34% # Writes before turning the bus around for reads
system.mem_ctrls1.wrPerTurnAround::44-47            9      0.68%     96.02% # Writes before turning the bus around for reads
system.mem_ctrls1.wrPerTurnAround::48-51           19      1.43%     97.44% # Writes before turning the bus around for reads
system.mem_ctrls1.wrPerTurnAround::52-55            6      0.45%     97.89% # Writes before turning the bus around for reads
system.mem_ctrls1.wrPerTurnAround::56-59            5      0.38%     98.27% # Writes before turning the bus around for reads
system.mem_ctrls1.wrPerTurnAround::60-63            3      0.23%     98.50% # Writes before turning the bus around for reads
system.mem_ctrls1.wrPerTurnAround::64-67            5      0.38%     98.87% # Writes before turning the bus around for reads
system.mem_ctrls1.wrPerTurnAround::72-75            4      0.30%     99.17% # Writes before turning the bus around for reads
system.mem_ctrls1.wrPerTurnAround::76-79            1      0.08%     99.25% # Writes before turning the bus around for reads
system.mem_ctrls1.wrPerTurnAround::80-83            2      0.15%     99.40% # Writes before turning the bus around for reads
system.mem_ctrls1.wrPerTurnAround::84-87            2      0.15%     99.55% # Writes before turning the bus around for reads
system.mem_ctrls1.wrPerTurnAround::100-103            2      0.15%     99.70% # Writes before turning the bus around for reads
system.mem_ctrls1.wrPerTurnAround::112-115            2      0.15%     99.85% # Writes before turning the bus around for reads
system.mem_ctrls1.wrPerTurnAround::120-123            1      0.08%     99.92% # Writes before turning the bus around for reads
system.mem_ctrls1.wrPerTurnAround::128-131            1      0.08%    100.00% # Writes before turning the bus around for reads
system.mem_ctrls1.wrPerTurnAround::total         1330                       # Writes before turning the bus around for reads
system.mem_ctrls1.totQLat                  1233347491                       # Total ticks spent queuing
system.mem_ctrls1.totMemAccLat             1595522491                       # Total ticks spent from burst creation until serviced by the DRAM
system.mem_ctrls1.totBusLat                  96580000                       # Total ticks spent in databus transfers
system.mem_ctrls1.avgQLat                    63851.08                       # Average queueing delay per DRAM burst
system.mem_ctrls1.avgBusLat                   5000.00                       # Average bus latency per DRAM burst
system.mem_ctrls1.avgMemAccLat               82601.08                       # Average memory access latency per DRAM burst
system.mem_ctrls1.avgRdBW                        3.87                       # Average DRAM read bandwidth in MiByte/s
system.mem_ctrls1.avgWrBW                        5.32                       # Average achieved write bandwidth in MiByte/s
system.mem_ctrls1.avgRdBWSys                     3.92                       # Average system read bandwidth in MiByte/s
system.mem_ctrls1.avgWrBWSys                     5.32                       # Average system write bandwidth in MiByte/s
system.mem_ctrls1.peakBW                     12800.00                       # Theoretical peak bandwidth in MiByte/s
system.mem_ctrls1.busUtil                        0.07                       # Data bus utilization in percentage
system.mem_ctrls1.busUtilRead                    0.03                       # Data bus utilization in percentage for reads
system.mem_ctrls1.busUtilWrite                   0.04                       # Data bus utilization in percentage for writes
system.mem_ctrls1.avgRdQLen                      1.00                       # Average read queue length when enqueuing
system.mem_ctrls1.avgWrQLen                     24.13                       # Average write queue length when enqueuing
system.mem_ctrls1.readRowHits                   13743                       # Number of row buffer hits during reads
system.mem_ctrls1.writeRowHits                  20353                       # Number of row buffer hits during writes
system.mem_ctrls1.readRowHitRate                71.15                       # Row buffer hit rate for reads
system.mem_ctrls1.writeRowHitRate               76.61                       # Row buffer hit rate for writes
system.mem_ctrls1.avgGap                   5978942.50                       # Average gap between requests
system.mem_ctrls1.pageHitRate                   74.31                       # Row buffer hit rate, read and write combined
system.mem_ctrls1_0.actEnergy                80696280                       # Energy for activate commands per rank (pJ)
system.mem_ctrls1_0.preEnergy                42891090                       # Energy for precharge commands per rank (pJ)
system.mem_ctrls1_0.readEnergy              190752240                       # Energy for read commands per rank (pJ)
system.mem_ctrls1_0.writeEnergy              90112860                       # Energy for write commands per rank (pJ)
system.mem_ctrls1_0.refreshEnergy        7316059920.000002                       # Energy for refresh commands per rank (pJ)
system.mem_ctrls1_0.actBackEnergy          2481771450                       # Energy for active background per rank (pJ)
system.mem_ctrls1_0.preBackEnergy           445725600                       # Energy for precharge background per rank (pJ)
system.mem_ctrls1_0.actPowerDownEnergy    17589914430                       # Energy for active power-down per rank (pJ)
system.mem_ctrls1_0.prePowerDownEnergy    10426633440                       # Energy for precharge power-down per rank (pJ)
system.mem_ctrls1_0.selfRefreshEnergy    1313230061910                       # Energy for self refresh per rank (pJ)
system.mem_ctrls1_0.totalEnergy          1351897088160                       # Total energy per rank (pJ)
system.mem_ctrls1_0.averagePower           244.127796                       # Core power per rank (mW)
system.mem_ctrls1_0.totalIdleTime        272996596250                       # Total Idle time Per DRAM Rank
system.mem_ctrls1_0.memoryStateTime::IDLE    383263750                       # Time in different power states
system.mem_ctrls1_0.memoryStateTime::REF   1210854000                       # Time in different power states
system.mem_ctrls1_0.memoryStateTime::SREF 295142645500                       # Time in different power states
system.mem_ctrls1_0.memoryStateTime::PRE_PDN  10868899000                       # Time in different power states
system.mem_ctrls1_0.memoryStateTime::ACT   1571926000                       # Time in different power states
system.mem_ctrls1_0.memoryStateTime::ACT_PDN  14186196750                       # Time in different power states
system.mem_ctrls1_1.actEnergy                72613800                       # Energy for activate commands per rank (pJ)
system.mem_ctrls1_1.preEnergy                38595150                       # Energy for precharge commands per rank (pJ)
system.mem_ctrls1_1.readEnergy              188139000                       # Energy for read commands per rank (pJ)
system.mem_ctrls1_1.writeEnergy              89940600                       # Energy for write commands per rank (pJ)
system.mem_ctrls1_1.refreshEnergy        6741371520.000002                       # Energy for refresh commands per rank (pJ)
system.mem_ctrls1_1.actBackEnergy          2429515560                       # Energy for active background per rank (pJ)
system.mem_ctrls1_1.preBackEnergy           393369120                       # Energy for precharge background per rank (pJ)
system.mem_ctrls1_1.actPowerDownEnergy    16479492300                       # Energy for active power-down per rank (pJ)
system.mem_ctrls1_1.prePowerDownEnergy     9304549440                       # Energy for precharge power-down per rank (pJ)
system.mem_ctrls1_1.selfRefreshEnergy    1314448336095                       # Energy for self refresh per rank (pJ)
system.mem_ctrls1_1.totalEnergy          1350186417285                       # Total energy per rank (pJ)
system.mem_ctrls1_1.averagePower           243.818880                       # Core power per rank (mW)
system.mem_ctrls1_1.totalIdleTime        271973481250                       # Total Idle time Per DRAM Rank
system.mem_ctrls1_1.memoryStateTime::IDLE    373284500                       # Time in different power states
system.mem_ctrls1_1.memoryStateTime::REF   1254606000                       # Time in different power states
system.mem_ctrls1_1.memoryStateTime::SREF 294644408000                       # Time in different power states
system.mem_ctrls1_1.memoryStateTime::PRE_PDN  11329448250                       # Time in different power states
system.mem_ctrls1_1.memoryStateTime::ACT   1676889250                       # Time in different power states
system.mem_ctrls1_1.memoryStateTime::ACT_PDN  13863858000                       # Time in different power states
system.mem_ctrls2.pwrStateResidencyTicks::UNDEFINED 5537661470500                       # Cumulative time (in ticks) in various power states
system.mem_ctrls2.bytes_read::ruby.dir_cntrl2      1250432                       # Number of bytes read from this memory
system.mem_ctrls2.bytes_read::total           1250432                       # Number of bytes read from this memory
system.mem_ctrls2.bytes_written::ruby.dir_cntrl2      1683776                       # Number of bytes written to this memory
system.mem_ctrls2.bytes_written::total        1683776                       # Number of bytes written to this memory
system.mem_ctrls2.num_reads::ruby.dir_cntrl2        19538                       # Number of read requests responded to by this memory
system.mem_ctrls2.num_reads::total              19538                       # Number of read requests responded to by this memory
system.mem_ctrls2.num_writes::ruby.dir_cntrl2        26309                       # Number of write requests responded to by this memory
system.mem_ctrls2.num_writes::total             26309                       # Number of write requests responded to by this memory
system.mem_ctrls2.bw_read::ruby.dir_cntrl2      3909534                       # Total read bandwidth from this memory (bytes/s)
system.mem_ctrls2.bw_read::total              3909534                       # Total read bandwidth from this memory (bytes/s)
system.mem_ctrls2.bw_write::ruby.dir_cntrl2      5264404                       # Write bandwidth from this memory (bytes/s)
system.mem_ctrls2.bw_write::total             5264404                       # Write bandwidth from this memory (bytes/s)
system.mem_ctrls2.bw_total::ruby.dir_cntrl2      9173938                       # Total bandwidth to/from this memory (bytes/s)
system.mem_ctrls2.bw_total::total             9173938                       # Total bandwidth to/from this memory (bytes/s)
system.mem_ctrls2.readReqs                      19538                       # Number of read requests accepted
system.mem_ctrls2.writeReqs                     26309                       # Number of write requests accepted
system.mem_ctrls2.readBursts                    19538                       # Number of DRAM read bursts, including those serviced by the write queue
system.mem_ctrls2.writeBursts                   26309                       # Number of DRAM write bursts, including those merged in the write queue
system.mem_ctrls2.bytesReadDRAM               1235008                       # Total number of bytes read from DRAM
system.mem_ctrls2.bytesReadWrQ                  15424                       # Total number of bytes read from write queue
system.mem_ctrls2.bytesWritten                1683840                       # Total number of bytes written to DRAM
system.mem_ctrls2.bytesReadSys                1250432                       # Total read bytes from the system interface side
system.mem_ctrls2.bytesWrittenSys             1683776                       # Total written bytes from the system interface side
system.mem_ctrls2.servicedByWrQ                   241                       # Number of DRAM read bursts serviced by the write queue
system.mem_ctrls2.mergedWrBursts                    4                       # Number of DRAM write bursts merged with an existing one
system.mem_ctrls2.neitherReadNorWriteReqs            0                       # Number of requests that are neither read nor write
system.mem_ctrls2.perBankRdBursts::0             1280                       # Per bank write bursts
system.mem_ctrls2.perBankRdBursts::1             1240                       # Per bank write bursts
system.mem_ctrls2.perBankRdBursts::2             1326                       # Per bank write bursts
system.mem_ctrls2.perBankRdBursts::3             1306                       # Per bank write bursts
system.mem_ctrls2.perBankRdBursts::4             1239                       # Per bank write bursts
system.mem_ctrls2.perBankRdBursts::5             1146                       # Per bank write bursts
system.mem_ctrls2.perBankRdBursts::6             1088                       # Per bank write bursts
system.mem_ctrls2.perBankRdBursts::7             1074                       # Per bank write bursts
system.mem_ctrls2.perBankRdBursts::8             1124                       # Per bank write bursts
system.mem_ctrls2.perBankRdBursts::9             1098                       # Per bank write bursts
system.mem_ctrls2.perBankRdBursts::10            1166                       # Per bank write bursts
system.mem_ctrls2.perBankRdBursts::11            1214                       # Per bank write bursts
system.mem_ctrls2.perBankRdBursts::12            1223                       # Per bank write bursts
system.mem_ctrls2.perBankRdBursts::13            1208                       # Per bank write bursts
system.mem_ctrls2.perBankRdBursts::14            1249                       # Per bank write bursts
system.mem_ctrls2.perBankRdBursts::15            1316                       # Per bank write bursts
system.mem_ctrls2.perBankWrBursts::0             1789                       # Per bank write bursts
system.mem_ctrls2.perBankWrBursts::1             1654                       # Per bank write bursts
system.mem_ctrls2.perBankWrBursts::2             1691                       # Per bank write bursts
system.mem_ctrls2.perBankWrBursts::3             1616                       # Per bank write bursts
system.mem_ctrls2.perBankWrBursts::4             1340                       # Per bank write bursts
system.mem_ctrls2.perBankWrBursts::5             1465                       # Per bank write bursts
system.mem_ctrls2.perBankWrBursts::6             1623                       # Per bank write bursts
system.mem_ctrls2.perBankWrBursts::7             1641                       # Per bank write bursts
system.mem_ctrls2.perBankWrBursts::8             1799                       # Per bank write bursts
system.mem_ctrls2.perBankWrBursts::9             1789                       # Per bank write bursts
system.mem_ctrls2.perBankWrBursts::10            1568                       # Per bank write bursts
system.mem_ctrls2.perBankWrBursts::11            1586                       # Per bank write bursts
system.mem_ctrls2.perBankWrBursts::12            1591                       # Per bank write bursts
system.mem_ctrls2.perBankWrBursts::13            1824                       # Per bank write bursts
system.mem_ctrls2.perBankWrBursts::14            1705                       # Per bank write bursts
system.mem_ctrls2.perBankWrBursts::15            1629                       # Per bank write bursts
system.mem_ctrls2.numRdRetry                        0                       # Number of times read queue was full causing retry
system.mem_ctrls2.numWrRetry                      120                       # Number of times write queue was full causing retry
system.mem_ctrls2.totGap                 274597619500                       # Total gap between requests
system.mem_ctrls2.readPktSize::0                    0                       # Read request sizes (log2)
system.mem_ctrls2.readPktSize::1                    0                       # Read request sizes (log2)
system.mem_ctrls2.readPktSize::2                    0                       # Read request sizes (log2)
system.mem_ctrls2.readPktSize::3                    0                       # Read request sizes (log2)
[...]
system.ruby.L1Cache_Controller.M.PF_Store::total          487                      
system.ruby.L1Cache_Controller.IS.Data_Exclusive |      564052    100.00%    100.00% |           0      0.00%    100.00% |           0      0.00%    100.00% |           0      0.00%    100.00% |           0      0.00%    100.00% |           0      0.00%    100.00% |           0      0.00%    100.00% |           0      0.00%    100.00%
system.ruby.L1Cache_Controller.IS.Data_Exclusive::total       564052                      
system.ruby.L1Cache_Controller.IS.Data_all_Acks |      588769    100.00%    100.00% |           0      0.00%    100.00% |           0      0.00%    100.00% |           0      0.00%    100.00% |           0      0.00%    100.00% |           0      0.00%    100.00% |           0      0.00%    100.00% |           0      0.00%    100.00%
system.ruby.L1Cache_Controller.IS.Data_all_Acks::total       588769                      
system.ruby.L1Cache_Controller.IM.Data_all_Acks |      375317    100.00%    100.00% |           0      0.00%    100.00% |           0      0.00%    100.00% |           0      0.00%    100.00% |           0      0.00%    100.00% |           0      0.00%    100.00% |           0      0.00%    100.00% |           0      0.00%    100.00%
system.ruby.L1Cache_Controller.IM.Data_all_Acks::total       375317                      
system.ruby.L1Cache_Controller.M_I.Ifetch |           7    100.00%    100.00% |           0      0.00%    100.00% |           0      0.00%    100.00% |           0      0.00%    100.00% |           0      0.00%    100.00% |           0      0.00%    100.00% |           0      0.00%    100.00% |           0      0.00%    100.00%
system.ruby.L1Cache_Controller.M_I.Ifetch::total            7                      
system.ruby.L1Cache_Controller.M_I.WB_Ack |     1049569    100.00%    100.00% |           0      0.00%    100.00% |           0      0.00%    100.00% |           0      0.00%    100.00% |           0      0.00%    100.00% |           0      0.00%    100.00% |           0      0.00%    100.00% |           0      0.00%    100.00%
system.ruby.L1Cache_Controller.M_I.WB_Ack::total      1049569                      
system.ruby.L1Cache_Controller.PF_IS.Load |         674    100.00%    100.00% |           0      0.00%    100.00% |           0      0.00%    100.00% |           0      0.00%    100.00% |           0      0.00%    100.00% |           0      0.00%    100.00% |           0      0.00%    100.00% |           0      0.00%    100.00%
system.ruby.L1Cache_Controller.PF_IS.Load::total          674                      
system.ruby.L1Cache_Controller.PF_IS.Ifetch |          48    100.00%    100.00% |           0      0.00%    100.00% |           0      0.00%    100.00% |           0      0.00%    100.00% |           0      0.00%    100.00% |           0      0.00%    100.00% |           0      0.00%    100.00% |           0      0.00%    100.00%
system.ruby.L1Cache_Controller.PF_IS.Ifetch::total           48                      
system.ruby.L1Cache_Controller.PF_IS.Store |           1    100.00%    100.00% |           0      0.00%    100.00% |           0      0.00%    100.00% |           0      0.00%    100.00% |           0      0.00%    100.00% |           0      0.00%    100.00% |           0      0.00%    100.00% |           0      0.00%    100.00%
system.ruby.L1Cache_Controller.PF_IS.Store::total            1                      
system.ruby.L1Cache_Controller.PF_IS.Data_Exclusive |       53472    100.00%    100.00% |           0      0.00%    100.00% |           0      0.00%    100.00% |           0      0.00%    100.00% |           0      0.00%    100.00% |           0      0.00%    100.00% |           0      0.00%    100.00% |           0      0.00%    100.00%
system.ruby.L1Cache_Controller.PF_IS.Data_Exclusive::total        53472                      
system.ruby.L1Cache_Controller.PF_IS.Data_all_Acks |        9054    100.00%    100.00% |           0      0.00%    100.00% |           0      0.00%    100.00% |           0      0.00%    100.00% |           0      0.00%    100.00% |           0      0.00%    100.00% |           0      0.00%    100.00% |           0      0.00%    100.00%
system.ruby.L1Cache_Controller.PF_IS.Data_all_Acks::total         9054                      
system.ruby.L1Cache_Controller.PF_IM.Store |        1556    100.00%    100.00% |           0      0.00%    100.00% |           0      0.00%    100.00% |           0      0.00%    100.00% |           0      0.00%    100.00% |           0      0.00%    100.00% |           0      0.00%    100.00% |           0      0.00%    100.00%
system.ruby.L1Cache_Controller.PF_IM.Store::total         1556                      
system.ruby.L1Cache_Controller.PF_IM.Data_all_Acks |       57105    100.00%    100.00% |           0      0.00%    100.00% |           0      0.00%    100.00% |           0      0.00%    100.00% |           0      0.00%    100.00% |           0      0.00%    100.00% |           0      0.00%    100.00% |           0      0.00%    100.00%
system.ruby.L1Cache_Controller.PF_IM.Data_all_Acks::total        57105                      
system.ruby.L2Cache_Controller.L1_GET_INSTR |       78043     13.06%     13.06% |       69551     11.64%     24.69% |       70682     11.83%     36.52% |       81178     13.58%     50.10% |       71460     11.96%     62.06% |       78798     13.18%     75.24% |       78640     13.16%     88.40% |       69357     11.60%    100.00%
system.ruby.L2Cache_Controller.L1_GET_INSTR::total       597709                      
system.ruby.L2Cache_Controller.L1_GETS   |       95455     15.45%     15.45% |       75719     12.26%     27.71% |       76877     12.45%     40.16% |       74779     12.11%     52.27% |       73558     11.91%     64.18% |       73685     11.93%     76.11% |       71507     11.58%     87.69% |       76058     12.31%    100.00%
system.ruby.L2Cache_Controller.L1_GETS::total       617638                      
system.ruby.L2Cache_Controller.L1_GETX   |       56041     12.96%     12.96% |       53087     12.28%     25.24% |       54715     12.65%     37.89% |       53111     12.28%     50.17% |       52512     12.14%     62.32% |       55992     12.95%     75.26% |       54037     12.50%     87.76% |       52927     12.24%    100.00%
system.ruby.L2Cache_Controller.L1_GETX::total       432422                      
system.ruby.L2Cache_Controller.L1_PUTX   |      151233     14.41%     14.41% |      128787     12.27%     26.68% |      131501     12.53%     39.21% |      127848     12.18%     51.39% |      126053     12.01%     63.40% |      129658     12.35%     75.75% |      125521     11.96%     87.71% |      128968     12.29%    100.00%
system.ruby.L2Cache_Controller.L1_PUTX::total      1049569                      
system.ruby.L2Cache_Controller.L2_Replacement |       17124     12.52%     12.52% |       17339     12.68%     25.19% |       17077     12.48%     37.68% |       17253     12.61%     50.29% |       17056     12.47%     62.76% |       17130     12.52%     75.28% |       16829     12.30%     87.58% |       16988     12.42%    100.00%
system.ruby.L2Cache_Controller.L2_Replacement::total       136796                      
system.ruby.L2Cache_Controller.L2_Replacement_clean |         862     13.35%     13.35% |         797     12.35%     25.70% |         802     12.42%     38.12% |         773     11.97%     50.09% |         787     12.19%     62.28% |         795     12.31%     74.60% |         815     12.62%     87.22% |         825     12.78%    100.00%
system.ruby.L2Cache_Controller.L2_Replacement_clean::total         6456                      
system.ruby.L2Cache_Controller.Mem_Data  |       19838     12.68%     12.68% |       19582     12.52%     25.20% |       19538     12.49%     37.70% |       19506     12.47%     50.17% |       19484     12.46%     62.62% |       19478     12.45%     75.08% |       19487     12.46%     87.54% |       19495     12.46%    100.00%
system.ruby.L2Cache_Controller.Mem_Data::total       156408                      
system.ruby.L2Cache_Controller.Mem_Ack   |       18483     12.71%     12.71% |       18382     12.64%     25.35% |       18113     12.46%     37.81% |       18261     12.56%     50.37% |       18078     12.43%     62.80% |       18161     12.49%     75.29% |       17881     12.30%     87.58% |       18054     12.42%    100.00%
system.ruby.L2Cache_Controller.Mem_Ack::total       145413                      
system.ruby.L2Cache_Controller.WB_Data   |         263     70.13%     70.13% |          17      4.53%     74.67% |          15      4.00%     78.67% |          15      4.00%     82.67% |          16      4.27%     86.93% |          16      4.27%     91.20% |          17      4.53%     95.73% |          16      4.27%    100.00%
system.ruby.L2Cache_Controller.WB_Data::total          375                      
system.ruby.L2Cache_Controller.Ack_all   |         332     13.23%     13.23% |         316     12.59%     25.83% |         317     12.63%     38.46% |         300     11.96%     50.42% |         301     12.00%     62.42% |         305     12.16%     74.57% |         314     12.51%     87.09% |         324     12.91%    100.00%
system.ruby.L2Cache_Controller.Ack_all::total         2509                      
system.ruby.L2Cache_Controller.Exclusive_Unblock |      151496     14.43%     14.43% |      128805     12.27%     26.70% |      131517     12.53%     39.22% |      127863     12.18%     51.40% |      126069     12.01%     63.41% |      129674     12.35%     75.76% |      125538     11.96%     87.72% |      128984     12.28%    100.00%
system.ruby.L2Cache_Controller.Exclusive_Unblock::total      1049946                      
system.ruby.L2Cache_Controller.MEM_Inv   |         994     23.00%     23.00% |         492     11.38%     34.38% |         468     10.83%     45.21% |         470     10.87%     56.09% |         470     10.87%     66.96% |         472     10.92%     77.88% |         474     10.97%     88.85% |         482     11.15%    100.00%
system.ruby.L2Cache_Controller.MEM_Inv::total         4322                      
system.ruby.L2Cache_Controller.NP.L1_GET_INSTR |         545     12.39%     12.39% |         560     12.73%     25.13% |         568     12.91%     38.04% |         531     12.07%     50.11% |         528     12.01%     62.12% |         546     12.41%     74.53% |         562     12.78%     87.31% |         558     12.69%    100.00%
system.ruby.L2Cache_Controller.NP.L1_GET_INSTR::total         4398                      
system.ruby.L2Cache_Controller.NP.L1_GETS |        6093     12.97%     12.97% |        5815     12.38%     25.35% |        5841     12.43%     37.78% |        5961     12.69%     50.47% |        5781     12.30%     62.77% |        5931     12.62%     75.39% |        5870     12.49%     87.89% |        5691     12.11%    100.00%
system.ruby.L2Cache_Controller.NP.L1_GETS::total        46983                      
system.ruby.L2Cache_Controller.NP.L1_GETX |       13200     12.57%     12.57% |       13207     12.57%     25.14% |       13129     12.50%     37.64% |       13014     12.39%     50.03% |       13175     12.54%     62.58% |       13001     12.38%     74.96% |       13055     12.43%     87.39% |       13246     12.61%    100.00%
system.ruby.L2Cache_Controller.NP.L1_GETX::total       105027                      
system.ruby.L2Cache_Controller.SS.L1_GET_INSTR |       77496     13.06%     13.06% |       68991     11.63%     24.69% |       70111     11.82%     36.51% |       80646     13.59%     50.10% |       70931     11.96%     62.06% |       78249     13.19%     75.24% |       78076     13.16%     88.40% |       68799     11.60%    100.00%
system.ruby.L2Cache_Controller.SS.L1_GET_INSTR::total       593299                      
system.ruby.L2Cache_Controller.SS.L1_GETS |           0      0.00%      0.00% |           1      0.88%      0.88% |          75     65.79%     66.67% |          27     23.68%     90.35% |           1      0.88%     91.23% |           3      2.63%     93.86% |           6      5.26%     99.12% |           1      0.88%    100.00%
system.ruby.L2Cache_Controller.SS.L1_GETS::total          114                      
system.ruby.L2Cache_Controller.SS.L2_Replacement_clean |         332     13.23%     13.23% |         316     12.59%     25.83% |         317     12.63%     38.46% |         300     11.96%     50.42% |         301     12.00%     62.42% |         305     12.16%     74.57% |         314     12.51%     87.09% |         324     12.91%    100.00%
system.ruby.L2Cache_Controller.SS.L2_Replacement_clean::total         2509                      
system.ruby.L2Cache_Controller.M.L1_GET_INSTR |           2     16.67%     16.67% |           0      0.00%     16.67% |           3     25.00%     41.67% |           1      8.33%     50.00% |           1      8.33%     58.33% |           3     25.00%     83.33% |           2     16.67%    100.00% |           0      0.00%    100.00%
system.ruby.L2Cache_Controller.M.L1_GET_INSTR::total           12                      
system.ruby.L2Cache_Controller.M.L1_GETS |       89362     15.66%     15.66% |       69903     12.25%     27.91% |       70961     12.44%     40.35% |       68791     12.06%     52.41% |       67776     11.88%     64.29% |       67751     11.87%     76.16% |       65631     11.50%     87.67% |       70366     12.33%    100.00%
system.ruby.L2Cache_Controller.M.L1_GETS::total       570541                      
system.ruby.L2Cache_Controller.M.L1_GETX |       42841     13.09%     13.09% |       39880     12.18%     25.27% |       41586     12.70%     37.97% |       40097     12.25%     50.22% |       39337     12.02%     62.23% |       42991     13.13%     75.36% |       40982     12.52%     87.88% |       39681     12.12%    100.00%
system.ruby.L2Cache_Controller.M.L1_GETX::total       327395                      
system.ruby.L2Cache_Controller.M.L2_Replacement |       17124     12.52%     12.52% |       17339     12.68%     25.19% |       17077     12.48%     37.68% |       17253     12.61%     50.29% |       17056     12.47%     62.76% |       17130     12.52%     75.28% |       16829     12.30%     87.58% |       16988     12.42%    100.00%
system.ruby.L2Cache_Controller.M.L2_Replacement::total       136796                      
system.ruby.L2Cache_Controller.M.L2_Replacement_clean |         530     13.43%     13.43% |         481     12.19%     25.61% |         485     12.29%     37.90% |         473     11.98%     49.89% |         486     12.31%     62.20% |         490     12.41%     74.61% |         501     12.69%     87.31% |         501     12.69%    100.00%
system.ruby.L2Cache_Controller.M.L2_Replacement_clean::total         3947                      
system.ruby.L2Cache_Controller.M.MEM_Inv |         234     13.10%     13.10% |         229     12.82%     25.92% |         219     12.26%     38.19% |         220     12.32%     50.50% |         219     12.26%     62.77% |         220     12.32%     75.08% |         220     12.32%     87.40% |         225     12.60%    100.00%
system.ruby.L2Cache_Controller.M.MEM_Inv::total         1786                      
system.ruby.L2Cache_Controller.MT.L1_PUTX |      151233     14.41%     14.41% |      128787     12.27%     26.68% |      131501     12.53%     39.21% |      127848     12.18%     51.39% |      126053     12.01%     63.40% |      129658     12.35%     75.75% |      125521     11.96%     87.71% |      128968     12.29%    100.00%
system.ruby.L2Cache_Controller.MT.L1_PUTX::total      1049569                      
system.ruby.L2Cache_Controller.MT.MEM_Inv |         263     70.13%     70.13% |          17      4.53%     74.67% |          15      4.00%     78.67% |          15      4.00%     82.67% |          16      4.27%     86.93% |          16      4.27%     91.20% |          17      4.53%     95.73% |          16      4.27%    100.00%
system.ruby.L2Cache_Controller.MT.MEM_Inv::total          375                      
system.ruby.L2Cache_Controller.M_I.Mem_Ack |       18483     12.71%     12.71% |       18382     12.64%     25.35% |       18113     12.46%     37.81% |       18261     12.56%     50.37% |       18078     12.43%     62.80% |       18161     12.49%     75.29% |       17881     12.30%     87.58% |       18054     12.42%    100.00%
system.ruby.L2Cache_Controller.M_I.Mem_Ack::total       145413                      
system.ruby.L2Cache_Controller.M_I.MEM_Inv |         234     13.10%     13.10% |         229     12.82%     25.92% |         219     12.26%     38.19% |         220     12.32%     50.50% |         219     12.26%     62.77% |         220     12.32%     75.08% |         220     12.32%     87.40% |         225     12.60%    100.00%
system.ruby.L2Cache_Controller.M_I.MEM_Inv::total         1786                      
system.ruby.L2Cache_Controller.MT_I.WB_Data |         263     70.13%     70.13% |          17      4.53%     74.67% |          15      4.00%     78.67% |          15      4.00%     82.67% |          16      4.27%     86.93% |          16      4.27%     91.20% |          17      4.53%     95.73% |          16      4.27%    100.00%
system.ruby.L2Cache_Controller.MT_I.WB_Data::total          375                      
system.ruby.L2Cache_Controller.MT_I.MEM_Inv |         263     70.13%     70.13% |          17      4.53%     74.67% |          15      4.00%     78.67% |          15      4.00%     82.67% |          16      4.27%     86.93% |          16      4.27%     91.20% |          17      4.53%     95.73% |          16      4.27%    100.00%
system.ruby.L2Cache_Controller.MT_I.MEM_Inv::total          375                      
system.ruby.L2Cache_Controller.I_I.Ack_all |         332     13.23%     13.23% |         316     12.59%     25.83% |         317     12.63%     38.46% |         300     11.96%     50.42% |         301     12.00%     62.42% |         305     12.16%     74.57% |         314     12.51%     87.09% |         324     12.91%    100.00%
system.ruby.L2Cache_Controller.I_I.Ack_all::total         2509                      
system.ruby.L2Cache_Controller.ISS.Mem_Data |        6093     12.97%     12.97% |        5815     12.38%     25.35% |        5841     12.43%     37.78% |        5961     12.69%     50.47% |        5781     12.30%     62.77% |        5931     12.62%     75.39% |        5870     12.49%     87.89% |        5691     12.11%    100.00%
system.ruby.L2Cache_Controller.ISS.Mem_Data::total        46983                      
system.ruby.L2Cache_Controller.IS.Mem_Data |         545     12.39%     12.39% |         560     12.73%     25.13% |         568     12.91%     38.04% |         531     12.07%     50.11% |         528     12.01%     62.12% |         546     12.41%     74.53% |         562     12.78%     87.31% |         558     12.69%    100.00%
system.ruby.L2Cache_Controller.IS.Mem_Data::total         4398                      
system.ruby.L2Cache_Controller.IM.Mem_Data |       13200     12.57%     12.57% |       13207     12.57%     25.14% |       13129     12.50%     37.64% |       13014     12.39%     50.03% |       13175     12.54%     62.58% |       13001     12.38%     74.96% |       13055     12.43%     87.39% |       13246     12.61%    100.00%
system.ruby.L2Cache_Controller.IM.Mem_Data::total       105027                      
system.ruby.L2Cache_Controller.MT_MB.Exclusive_Unblock |      151496     14.43%     14.43% |      128805     12.27%     26.70% |      131517     12.53%     39.22% |      127863     12.18%     51.40% |      126069     12.01%     63.41% |      129674     12.35%     75.76% |      125538     11.96%     87.72% |      128984     12.28%    100.00%
system.ruby.L2Cache_Controller.MT_MB.Exclusive_Unblock::total      1049946                      

---------- End Simulation Statistics   ----------
