
---------- Begin Simulation Statistics ----------
sim_seconds                                  3.670676                       # Number of seconds simulated
sim_ticks                                3670676357000                       # Number of ticks simulated
final_tick                               8890807214000                       # Number of ticks from beginning of simulation (restored from checkpoints and never reset)
sim_freq                                 1000000000000                       # Frequency of simulated ticks
host_inst_rate                                 550621                       # Simulator instruction rate (inst/s)
host_op_rate                                  1001121                       # Simulator op (including micro ops) rate (op/s)
host_tick_rate                              916954315                       # Simulator tick rate (ticks/s)
host_mem_usage                                1796780                       # Number of bytes of host memory used
host_seconds                                  4003.12                       # Real time elapsed on the host
sim_insts                                  2204201119                       # Number of instructions simulated
sim_ops                                    4007605109                       # Number of ops (including micro ops) simulated
system.voltage_domain.voltage                       1                       # Voltage in Volts
system.clk_domain.clock                          1000                       # Clock period in ticks
system.mem_ctrls0.pwrStateResidencyTicks::UNDEFINED 8890807214000                       # Cumulative time (in ticks) in various power states
system.mem_ctrls0.bytes_read::ruby.dir_cntrl0      3782464                       # Number of bytes read from this memory
system.mem_ctrls0.bytes_read::total           3782464                       # Number of bytes read from this memory
system.mem_ctrls0.bytes_written::ruby.dir_cntrl0      3652160                       # Number of bytes written to this memory
system.mem_ctrls0.bytes_written::total        3652160                       # Number of bytes written to this memory
system.mem_ctrls0.num_reads::ruby.dir_cntrl0        59101                       # Number of read requests responded to by this memory
system.mem_ctrls0.num_reads::total              59101                       # Number of read requests responded to by this memory
system.mem_ctrls0.num_writes::ruby.dir_cntrl0        57065                       # Number of write requests responded to by this memory
system.mem_ctrls0.num_writes::total             57065                       # Number of write requests responded to by this memory
system.mem_ctrls0.bw_read::ruby.dir_cntrl0      1030454                       # Total read bandwidth from this memory (bytes/s)
system.mem_ctrls0.bw_read::total              1030454                       # Total read bandwidth from this memory (bytes/s)
system.mem_ctrls0.bw_write::ruby.dir_cntrl0       994956                       # Write bandwidth from this memory (bytes/s)
system.mem_ctrls0.bw_write::total              994956                       # Write bandwidth from this memory (bytes/s)
system.mem_ctrls0.bw_total::ruby.dir_cntrl0      2025410                       # Total bandwidth to/from this memory (bytes/s)
system.mem_ctrls0.bw_total::total             2025410                       # Total bandwidth to/from this memory (bytes/s)
system.mem_ctrls0.readReqs                      59101                       # Number of read requests accepted
system.mem_ctrls0.writeReqs                     57065                       # Number of write requests accepted
system.mem_ctrls0.readBursts                    59101                       # Number of DRAM read bursts, including those serviced by the write queue
system.mem_ctrls0.writeBursts                   57065                       # Number of DRAM write bursts, including those merged in the write queue
system.mem_ctrls0.bytesReadDRAM               3760768                       # Total number of bytes read from DRAM
system.mem_ctrls0.bytesReadWrQ                  21696                       # Total number of bytes read from write queue
system.mem_ctrls0.bytesWritten                3647616                       # Total number of bytes written to DRAM
system.mem_ctrls0.bytesReadSys                3782464                       # Total read bytes from the system interface side
system.mem_ctrls0.bytesWrittenSys             3652160                       # Total written bytes from the system interface side
system.mem_ctrls0.servicedByWrQ                   339                       # Number of DRAM read bursts serviced by the write queue
system.mem_ctrls0.mergedWrBursts                   85                       # Number of DRAM write bursts merged with an existing one
system.mem_ctrls0.neitherReadNorWriteReqs            0                       # Number of requests that are neither read nor write
system.mem_ctrls0.perBankRdBursts::0             3633                       # Per bank write bursts
system.mem_ctrls0.perBankRdBursts::1             3721                       # Per bank write bursts
system.mem_ctrls0.perBankRdBursts::2             3570                       # Per bank write bursts
system.mem_ctrls0.perBankRdBursts::3             3691                       # Per bank write bursts
system.mem_ctrls0.perBankRdBursts::4             3695                       # Per bank write bursts
system.mem_ctrls0.perBankRdBursts::5             3833                       # Per bank write bursts
system.mem_ctrls0.perBankRdBursts::6             3636                       # Per bank write bursts
system.mem_ctrls0.perBankRdBursts::7             3492                       # Per bank write bursts
system.mem_ctrls0.perBankRdBursts::8             3395                       # Per bank write bursts
system.mem_ctrls0.perBankRdBursts::9             3705                       # Per bank write bursts
system.mem_ctrls0.perBankRdBursts::10            3955                       # Per bank write bursts
system.mem_ctrls0.perBankRdBursts::11            3966                       # Per bank write bursts
system.mem_ctrls0.perBankRdBursts::12            3467                       # Per bank write bursts
system.mem_ctrls0.perBankRdBursts::13            3678                       # Per bank write bursts
system.mem_ctrls0.perBankRdBursts::14            3659                       # Per bank write bursts
system.mem_ctrls0.perBankRdBursts::15            3666                       # Per bank write bursts
system.mem_ctrls0.perBankWrBursts::0             3639                       # Per bank write bursts
system.mem_ctrls0.perBankWrBursts::1             3593                       # Per bank write bursts
system.mem_ctrls0.perBankWrBursts::2             3406                       # Per bank write bursts
system.mem_ctrls0.perBankWrBursts::3             3590                       # Per bank write bursts
system.mem_ctrls0.perBankWrBursts::4             3478                       # Per bank write bursts
system.mem_ctrls0.perBankWrBursts::5             3627                       # Per bank write bursts
system.mem_ctrls0.perBankWrBursts::6             3462                       # Per bank write bursts
system.mem_ctrls0.perBankWrBursts::7             3410                       # Per bank write bursts
system.mem_ctrls0.perBankWrBursts::8             3528                       # Per bank write bursts
system.mem_ctrls0.perBankWrBursts::9             3715                       # Per bank write bursts
system.mem_ctrls0.perBankWrBursts::10            3895                       # Per bank write bursts
system.mem_ctrls0.perBankWrBursts::11            3907                       # Per bank write bursts
system.mem_ctrls0.perBankWrBursts::12            3426                       # Per bank write bursts
system.mem_ctrls0.perBankWrBursts::13            3523                       # Per bank write bursts
system.mem_ctrls0.perBankWrBursts::14            3463                       # Per bank write bursts
system.mem_ctrls0.perBankWrBursts::15            3332                       # Per bank write bursts
system.mem_ctrls0.numRdRetry                        0                       # Number of times read queue was full causing retry
system.mem_ctrls0.numWrRetry                       29                       # Number of times write queue was full causing retry
system.mem_ctrls0.totGap                 3671595124500                       # Total gap between requests
system.mem_ctrls0.readPktSize::0                    0                       # Read request sizes (log2)
system.mem_ctrls0.readPktSize::1                    0                       # Read request sizes (log2)
system.mem_ctrls0.readPktSize::2                    0                       # Read request sizes (log2)
system.mem_ctrls0.readPktSize::3                    0                       # Read request sizes (log2)
system.mem_ctrls0.readPktSize::4                    0                       # Read request sizes (log2)
system.mem_ctrls0.readPktSize::5                    0                       # Read request sizes (log2)
system.mem_ctrls0.readPktSize::6                59101                       # Read request sizes (log2)
system.mem_ctrls0.writePktSize::0                   0                       # Write request sizes (log2)
system.mem_ctrls0.writePktSize::1                   0                       # Write request sizes (log2)
system.mem_ctrls0.writePktSize::2                   0                       # Write request sizes (log2)
system.mem_ctrls0.writePktSize::3                   0                       # Write request sizes (log2)
system.mem_ctrls0.writePktSize::4                   0                       # Write request sizes (log2)
system.mem_ctrls0.writePktSize::5                   0                       # Write request sizes (log2)
system.mem_ctrls0.writePktSize::6               57065                       # Write request sizes (log2)
system.mem_ctrls0.rdQLenPdf::0                  58759                       # What read queue length does an incoming req see
system.mem_ctrls0.rdQLenPdf::1                      3                       # What read queue length does an incoming req see
system.mem_ctrls0.rdQLenPdf::2                      0                       # What read queue length does an incoming req see
system.mem_ctrls0.rdQLenPdf::3                      0                       # What read queue length does an incoming req see
system.mem_ctrls0.rdQLenPdf::4                      0                       # What read queue length does an incoming req see
system.mem_ctrls0.rdQLenPdf::5                      0                       # What read queue length does an incoming req see
system.mem_ctrls0.rdQLenPdf::6                      0                       # What read queue length does an incoming req see
system.mem_ctrls0.rdQLenPdf::7                      0                       # What read queue length does an incoming req see
system.mem_ctrls0.rdQLenPdf::8                      0                       # What read queue length does an incoming req see
system.mem_ctrls0.rdQLenPdf::9                      0                       # What read queue length does an incoming req see
system.mem_ctrls0.rdQLenPdf::10                     0                       # What read queue length does an incoming req see
system.mem_ctrls0.rdQLenPdf::11                     0                       # What read queue length does an incoming req see
system.mem_ctrls0.rdQLenPdf::12                     0                       # What read queue length does an incoming req see
system.mem_ctrls0.rdQLenPdf::13                     0                       # What read queue length does an incoming req see
system.mem_ctrls0.rdQLenPdf::14                     0                       # What read queue length does an incoming req see
system.mem_ctrls0.rdQLenPdf::15                     0                       # What read queue length does an incoming req see
system.mem_ctrls0.rdQLenPdf::16                     0                       # What read queue length does an incoming req see
system.mem_ctrls0.rdQLenPdf::17                     0                       # What read queue length does an incoming req see
system.mem_ctrls0.rdQLenPdf::18                     0                       # What read queue length does an incoming req see
system.mem_ctrls0.rdQLenPdf::19                     0                       # What read queue length does an incoming req see
system.mem_ctrls0.rdQLenPdf::20                     0                       # What read queue length does an incoming req see
system.mem_ctrls0.rdQLenPdf::21                     0                       # What read queue length does an incoming req see
system.mem_ctrls0.rdQLenPdf::22                     0                       # What read queue length does an incoming req see
system.mem_ctrls0.rdQLenPdf::23                     0                       # What read queue length does an incoming req see
system.mem_ctrls0.rdQLenPdf::24                     0                       # What read queue length does an incoming req see
system.mem_ctrls0.rdQLenPdf::25                     0                       # What read queue length does an incoming req see
system.mem_ctrls0.rdQLenPdf::26                     0                       # What read queue length does an incoming req see
system.mem_ctrls0.rdQLenPdf::27                     0                       # What read queue length does an incoming req see
system.mem_ctrls0.rdQLenPdf::28                     0                       # What read queue length does an incoming req see
system.mem_ctrls0.rdQLenPdf::29                     0                       # What read queue length does an incoming req see
system.mem_ctrls0.rdQLenPdf::30                     0                       # What read queue length does an incoming req see
system.mem_ctrls0.rdQLenPdf::31                     0                       # What read queue length does an incoming req see
system.mem_ctrls0.wrQLenPdf::0                      0                       # What write queue length does an incoming req see
system.mem_ctrls0.wrQLenPdf::1                      0                       # What write queue length does an incoming req see
system.mem_ctrls0.wrQLenPdf::2                      0                       # What write queue length does an incoming req see
system.mem_ctrls0.wrQLenPdf::3                      0                       # What write queue length does an incoming req see
system.mem_ctrls0.wrQLenPdf::4                      0                       # What write queue length does an incoming req see
system.mem_ctrls0.wrQLenPdf::5                      0                       # What write queue length does an incoming req see
system.mem_ctrls0.wrQLenPdf::6                      0                       # What write queue length does an incoming req see
system.mem_ctrls0.wrQLenPdf::7                      0                       # What write queue length does an incoming req see
system.mem_ctrls0.wrQLenPdf::8                      0                       # What write queue length does an incoming req see
system.mem_ctrls0.wrQLenPdf::9                      0                       # What write queue length does an incoming req see
system.mem_ctrls0.wrQLenPdf::10                     0                       # What write queue length does an incoming req see
system.mem_ctrls0.wrQLenPdf::11                     0                       # What write queue length does an incoming req see
system.mem_ctrls0.wrQLenPdf::12                     0                       # What write queue length does an incoming req see
system.mem_ctrls0.wrQLenPdf::13                     0                       # What write queue length does an incoming req see
system.mem_ctrls0.wrQLenPdf::14                     0                       # What write queue length does an incoming req see
system.mem_ctrls0.wrQLenPdf::15                   178                       # What write queue length does an incoming req see
system.mem_ctrls0.wrQLenPdf::16                   255                       # What write queue length does an incoming req see
system.mem_ctrls0.wrQLenPdf::17                  3402                       # What write queue length does an incoming req see
system.mem_ctrls0.wrQLenPdf::18                  3460                       # What write queue length does an incoming req see
system.mem_ctrls0.wrQLenPdf::19                  3484                       # What write queue length does an incoming req see
system.mem_ctrls0.wrQLenPdf::20                  3474                       # What write queue length does an incoming req see
system.mem_ctrls0.wrQLenPdf::21                  3453                       # What write queue length does an incoming req see
system.mem_ctrls0.wrQLenPdf::22                  3475                       # What write queue length does an incoming req see
system.mem_ctrls0.wrQLenPdf::23                  3461                       # What write queue length does an incoming req see
system.mem_ctrls0.wrQLenPdf::24                  3512                       # What write queue length does an incoming req see
system.mem_ctrls0.wrQLenPdf::25                  3621                       # What write queue length does an incoming req see
system.mem_ctrls0.wrQLenPdf::26                  3534                       # What write queue length does an incoming req see
system.mem_ctrls0.wrQLenPdf::27                  3488                       # What write queue length does an incoming req see
system.mem_ctrls0.wrQLenPdf::28                  3463                       # What write queue length does an incoming req see
system.mem_ctrls0.wrQLenPdf::29                  3414                       # What write queue length does an incoming req see
system.mem_ctrls0.wrQLenPdf::30                  3397                       # What write queue length does an incoming req see
system.mem_ctrls0.wrQLenPdf::31                  3381                       # What write queue length does an incoming req see
system.mem_ctrls0.wrQLenPdf::32                  3391                       # What write queue length does an incoming req see
system.mem_ctrls0.wrQLenPdf::33                    90                       # What write queue length does an incoming req see
system.mem_ctrls0.wrQLenPdf::34                    69                       # What write queue length does an incoming req see
system.mem_ctrls0.wrQLenPdf::35                    64                       # What write queue length does an incoming req see
system.mem_ctrls0.wrQLenPdf::36                    61                       # What write queue length does an incoming req see
system.mem_ctrls0.wrQLenPdf::37                    55                       # What write queue length does an incoming req see
system.mem_ctrls0.wrQLenPdf::38                    55                       # What write queue length does an incoming req see
system.mem_ctrls0.wrQLenPdf::39                    58                       # What write queue length does an incoming req see
system.mem_ctrls0.wrQLenPdf::40                    49                       # What write queue length does an incoming req see
system.mem_ctrls0.wrQLenPdf::41                    50                       # What write queue length does an incoming req see
system.mem_ctrls0.wrQLenPdf::42                    49                       # What write queue length does an incoming req see
system.mem_ctrls0.wrQLenPdf::43                    39                       # What write queue length does an incoming req see
system.mem_ctrls0.wrQLenPdf::44                    36                       # What write queue length does an incoming req see
system.mem_ctrls0.wrQLenPdf::45                    34                       # What write queue length does an incoming req see
system.mem_ctrls0.wrQLenPdf::46                    33                       # What write queue length does an incoming req see
system.mem_ctrls0.wrQLenPdf::47                    30                       # What write queue length does an incoming req see
system.mem_ctrls0.wrQLenPdf::48                    28                       # What write queue length does an incoming req see
system.mem_ctrls0.wrQLenPdf::49                    24                       # What write queue length does an incoming req see
system.mem_ctrls0.wrQLenPdf::50                    26                       # What write queue length does an incoming req see
system.mem_ctrls0.wrQLenPdf::51                    20                       # What write queue length does an incoming req see
system.mem_ctrls0.wrQLenPdf::52                    20                       # What write queue length does an incoming req see
system.mem_ctrls0.wrQLenPdf::53                    22                       # What write queue length does an incoming req see
system.mem_ctrls0.wrQLenPdf::54                    20                       # What write queue length does an incoming req see
system.mem_ctrls0.wrQLenPdf::55                    28                       # What write queue length does an incoming req see
system.mem_ctrls0.wrQLenPdf::56                    26                       # What write queue length does an incoming req see
system.mem_ctrls0.wrQLenPdf::57                    19                       # What write queue length does an incoming req see
system.mem_ctrls0.wrQLenPdf::58                    19                       # What write queue length does an incoming req see
system.mem_ctrls0.wrQLenPdf::59                    18                       # What write queue length does an incoming req see
system.mem_ctrls0.wrQLenPdf::60                    18                       # What write queue length does an incoming req see
system.mem_ctrls0.wrQLenPdf::61                    15                       # What write queue length does an incoming req see
system.mem_ctrls0.wrQLenPdf::62                    19                       # What write queue length does an incoming req see
system.mem_ctrls0.wrQLenPdf::63                    43                       # What write queue length does an incoming req see
system.mem_ctrls0.bytesPerActivate::samples        33980                       # Bytes accessed per row activation
system.mem_ctrls0.bytesPerActivate::mean   218.020012                       # Bytes accessed per row activation
system.mem_ctrls0.bytesPerActivate::gmean   162.272860                       # Bytes accessed per row activation
system.mem_ctrls0.bytesPerActivate::stdev   182.314035                       # Bytes accessed per row activation
system.mem_ctrls0.bytesPerActivate::0-127        10597     31.19%     31.19% # Bytes accessed per row activation
system.mem_ctrls0.bytesPerActivate::128-255        10771     31.70%     62.88% # Bytes accessed per row activation
system.mem_ctrls0.bytesPerActivate::256-383         6818     20.06%     82.95% # Bytes accessed per row activation
system.mem_ctrls0.bytesPerActivate::384-511         3480     10.24%     93.19% # Bytes accessed per row activation
system.mem_ctrls0.bytesPerActivate::512-639         1020      3.00%     96.19% # Bytes accessed per row activation
system.mem_ctrls0.bytesPerActivate::640-767          397      1.17%     97.36% # Bytes accessed per row activation
system.mem_ctrls0.bytesPerActivate::768-895          247      0.73%     98.09% # Bytes accessed per row activation
system.mem_ctrls0.bytesPerActivate::896-1023          197      0.58%     98.67% # Bytes accessed per row activation
system.mem_ctrls0.bytesPerActivate::1024-1151          453      1.33%    100.00% # Bytes accessed per row activation
system.mem_ctrls0.bytesPerActivate::total        33980                       # Bytes accessed per row activation
system.mem_ctrls0.rdPerTurnAround::samples         3345                       # Reads before turning the bus around for writes
system.mem_ctrls0.rdPerTurnAround::mean     17.573094                       # Reads before turning the bus around for writes
system.mem_ctrls0.rdPerTurnAround::stdev     8.208526                       # Reads before turning the bus around for writes
system.mem_ctrls0.rdPerTurnAround::0-7            199      5.95%      5.95% # Reads before turning the bus around for writes
system.mem_ctrls0.rdPerTurnAround::8-15            34      1.02%      6.97% # Reads before turning the bus around for writes
system.mem_ctrls0.rdPerTurnAround::16-23         2868     85.74%     92.71% # Reads before turning the bus around for writes
system.mem_ctrls0.rdPerTurnAround::24-31          148      4.42%     97.13% # Reads before turning the bus around for writes
system.mem_ctrls0.rdPerTurnAround::32-39           57      1.70%     98.83% # Reads before turning the bus around for writes
system.mem_ctrls0.rdPerTurnAround::40-47           15      0.45%     99.28% # Reads before turning the bus around for writes
system.mem_ctrls0.rdPerTurnAround::48-55            7      0.21%     99.49% # Reads before turning the bus around for writes
system.mem_ctrls0.rdPerTurnAround::56-63            6      0.18%     99.67% # Reads before turning the bus around for writes
system.mem_ctrls0.rdPerTurnAround::64-71            2      0.06%     99.73% # Reads before turning the bus around for writes
system.mem_ctrls0.rdPerTurnAround::72-79            2      0.06%     99.79% # Reads before turning the bus around for writes
system.mem_ctrls0.rdPerTurnAround::80-87            2      0.06%     99.85% # Reads before turning the bus around for writes
system.mem_ctrls0.rdPerTurnAround::120-127            2      0.06%     99.91% # Reads before turning the bus around for writes
system.mem_ctrls0.rdPerTurnAround::152-159            1      0.03%     99.94% # Reads before turning the bus around for writes
system.mem_ctrls0.rdPerTurnAround::160-167            2      0.06%    100.00% # Reads before turning the bus around for writes
system.mem_ctrls0.rdPerTurnAround::total         3345                       # Reads before turning the bus around for writes
system.mem_ctrls0.wrPerTurnAround::samples         3345                       # Writes before turning the bus around for reads
system.mem_ctrls0.wrPerTurnAround::mean     17.038565                       # Writes before turning the bus around for reads
system.mem_ctrls0.wrPerTurnAround::gmean    16.656317                       # Writes before turning the bus around for reads
system.mem_ctrls0.wrPerTurnAround::stdev     5.177184                       # Writes before turning the bus around for reads
system.mem_ctrls0.wrPerTurnAround::16-17         3143     93.96%     93.96% # Writes before turning the bus around for reads
system.mem_ctrls0.wrPerTurnAround::18-19           29      0.87%     94.83% # Writes before turning the bus around for reads
system.mem_ctrls0.wrPerTurnAround::20-21            6      0.18%     95.01% # Writes before turning the bus around for reads
system.mem_ctrls0.wrPerTurnAround::22-23            5      0.15%     95.16% # Writes before turning the bus around for reads
system.mem_ctrls0.wrPerTurnAround::24-25           21      0.63%     95.78% # Writes before turning the bus around for reads
system.mem_ctrls0.wrPerTurnAround::26-27           10      0.30%     96.08% # Writes before turning the bus around for reads
system.mem_ctrls0.wrPerTurnAround::28-29           17      0.51%     96.59% # Writes before turning the bus around for reads
system.mem_ctrls0.wrPerTurnAround::30-31           20      0.60%     97.19% # Writes before turning the bus around for reads
system.mem_ctrls0.wrPerTurnAround::32-33           22      0.66%     97.85% # Writes before turning the bus around for reads
system.mem_ctrls0.wrPerTurnAround::34-35            4      0.12%     97.97% # Writes before turning the bus around for reads
system.mem_ctrls0.wrPerTurnAround::36-37            7      0.21%     98.18% # Writes before turning the bus around for reads
system.mem_ctrls0.wrPerTurnAround::38-39            9      0.27%     98.45% # Writes before turning the bus around for reads
system.mem_ctrls0.wrPerTurnAround::40-41           10      0.30%     98.74% # Writes before turning the bus around for reads
system.mem_ctrls0.wrPerTurnAround::42-43            7      0.21%     98.95% # Writes before turning the bus around for reads
system.mem_ctrls0.wrPerTurnAround::44-45            1      0.03%     98.98% # Writes before turning the bus around for reads
system.mem_ctrls0.wrPerTurnAround::46-47            3      0.09%     99.07% # Writes before turning the bus around for reads
system.mem_ctrls0.wrPerTurnAround::48-49           14      0.42%     99.49% # Writes before turning the bus around for reads
system.mem_ctrls0.wrPerTurnAround::50-51            4      0.12%     99.61% # Writes before turning the bus around for reads
system.mem_ctrls0.wrPerTurnAround::52-53            2      0.06%     99.67% # Writes before turning the bus around for reads
system.mem_ctrls0.wrPerTurnAround::54-55            2      0.06%     99.73% # Writes before turning the bus around for reads
system.mem_ctrls0.wrPerTurnAround::56-57            4      0.12%     99.85% # Writes before turning the bus around for reads
system.mem_ctrls0.wrPerTurnAround::68-69            1      0.03%     99.88% # Writes before turning the bus around for reads
system.mem_ctrls0.wrPerTurnAround::72-73            1      0.03%     99.91% # Writes before turning the bus around for reads
system.mem_ctrls0.wrPerTurnAround::76-77            1      0.03%     99.94% # Writes before turning the bus around for reads
system.mem_ctrls0.wrPerTurnAround::90-91            1      0.03%     99.97% # Writes before turning the bus around for reads
system.mem_ctrls0.wrPerTurnAround::100-101            1      0.03%    100.00% # Writes before turning the bus around for reads
system.mem_ctrls0.wrPerTurnAround::total         3345                       # Writes before turning the bus around for reads
system.mem_ctrls0.totQLat                  4096877000                       # Total ticks spent queuing
system.mem_ctrls0.totMemAccLat             5198664500                       # Total ticks spent from burst creation until serviced by the DRAM
system.mem_ctrls0.totBusLat                 293810000                       # Total ticks spent in databus transfers
system.mem_ctrls0.avgQLat                    69719.84                       # Average queueing delay per DRAM burst
system.mem_ctrls0.avgBusLat                   5000.00                       # Average bus latency per DRAM burst
system.mem_ctrls0.avgMemAccLat               88469.84                       # Average memory access latency per DRAM burst
system.mem_ctrls0.avgRdBW                        1.02                       # Average DRAM read bandwidth in MiByte/s
system.mem_ctrls0.avgWrBW                        0.99                       # Average achieved write bandwidth in MiByte/s
system.mem_ctrls0.avgRdBWSys                     1.03                       # Average system read bandwidth in MiByte/s
system.mem_ctrls0.avgWrBWSys                     0.99                       # Average system write bandwidth in MiByte/s
system.mem_ctrls0.peakBW                     12800.00                       # Theoretical peak bandwidth in MiByte/s
system.mem_ctrls0.busUtil                        0.02                       # Data bus utilization in percentage
system.mem_ctrls0.busUtilRead                    0.01                       # Data bus utilization in percentage for reads
system.mem_ctrls0.busUtilWrite                   0.01                       # Data bus utilization in percentage for writes
system.mem_ctrls0.avgRdQLen                      1.00                       # Average read queue length when enqueuing
system.mem_ctrls0.avgWrQLen                     22.34                       # Average write queue length when enqueuing
system.mem_ctrls0.readRowHits                   39822                       # Number of row buffer hits during reads
system.mem_ctrls0.writeRowHits                  41953                       # Number of row buffer hits during writes
system.mem_ctrls0.readRowHitRate                67.77                       # Row buffer hit rate for reads
system.mem_ctrls0.writeRowHitRate               73.63                       # Row buffer hit rate for writes
system.mem_ctrls0.avgGap                  31606452.18                       # Average gap between requests
system.mem_ctrls0.pageHitRate                   70.65                       # Row buffer hit rate, read and write combined
system.mem_ctrls0_0.actEnergy               165248160                       # Energy for activate commands per rank (pJ)
system.mem_ctrls0_0.preEnergy                87827685                       # Energy for precharge commands per rank (pJ)
system.mem_ctrls0_0.readEnergy              330546300                       # Energy for read commands per rank (pJ)
system.mem_ctrls0_0.writeEnergy             169905780                       # Energy for write commands per rank (pJ)
system.mem_ctrls0_0.refreshEnergy        13861975920.000004                       # Energy for refresh commands per rank (pJ)
system.mem_ctrls0_0.actBackEnergy          4162509930                       # Energy for active background per rank (pJ)
system.mem_ctrls0_0.preBackEnergy           813563520                       # Energy for precharge background per rank (pJ)
system.mem_ctrls0_0.actPowerDownEnergy    34696804590                       # Energy for active power-down per rank (pJ)
system.mem_ctrls0_0.prePowerDownEnergy    19343419680                       # Energy for precharge power-down per rank (pJ)
system.mem_ctrls0_0.selfRefreshEnergy    2103631339380                       # Energy for self refresh per rank (pJ)
system.mem_ctrls0_0.totalEnergy          2177267733375                       # Total energy per rank (pJ)
system.mem_ctrls0_0.averagePower           244.889770                       # Core power per rank (mW)
system.mem_ctrls0_0.totalIdleTime        3663890792750                       # Total Idle time Per DRAM Rank
system.mem_ctrls0_0.memoryStateTime::IDLE   1031389250                       # Time in different power states
system.mem_ctrls0_0.memoryStateTime::REF   3843752000                       # Time in different power states
system.mem_ctrls0_0.memoryStateTime::SREF 3581929888500                       # Time in different power states
system.mem_ctrls0_0.memoryStateTime::PRE_PDN  32959904500                       # Time in different power states
system.mem_ctrls0_0.memoryStateTime::ACT   2813644500                       # Time in different power states
system.mem_ctrls0_0.memoryStateTime::ACT_PDN  49007361750                       # Time in different power states
system.mem_ctrls0_1.actEnergy               151853520                       # Energy for activate commands per rank (pJ)
system.mem_ctrls0_1.preEnergy                80712060                       # Energy for precharge commands per rank (pJ)
system.mem_ctrls0_1.readEnergy              329775180                       # Energy for read commands per rank (pJ)
system.mem_ctrls0_1.writeEnergy             169201080                       # Energy for write commands per rank (pJ)
system.mem_ctrls0_1.refreshEnergy        13118261520.000004                       # Energy for refresh commands per rank (pJ)
system.mem_ctrls0_1.actBackEnergy          4141295670                       # Energy for active background per rank (pJ)
system.mem_ctrls0_1.preBackEnergy           728117760                       # Energy for precharge background per rank (pJ)
system.mem_ctrls0_1.actPowerDownEnergy    33463428330                       # Energy for active power-down per rank (pJ)
system.mem_ctrls0_1.prePowerDownEnergy    17983984800                       # Energy for precharge power-down per rank (pJ)
system.mem_ctrls0_1.selfRefreshEnergy    2104972582680                       # Energy for self refresh per rank (pJ)
system.mem_ctrls0_1.totalEnergy          2175144219390                       # Total energy per rank (pJ)
system.mem_ctrls0_1.averagePower           244.650926                       # Core power per rank (mW)
system.mem_ctrls0_1.totalIdleTime        3666148483750                       # Total Idle time Per DRAM Rank
system.mem_ctrls0_1.memoryStateTime::IDLE    964793000                       # Time in different power states
system.mem_ctrls0_1.memoryStateTime::REF   3870308000                       # Time in different power states
system.mem_ctrls0_1.memoryStateTime::SREF 3583524059750                       # Time in different power states
system.mem_ctrls0_1.memoryStateTime::PRE_PDN  33229655750                       # Time in different power states
system.mem_ctrls0_1.memoryStateTime::ACT   2991413000                       # Time in different power states
system.mem_ctrls0_1.memoryStateTime::ACT_PDN  49431192750                       # Time in different power states
system.mem_ctrls1.pwrStateResidencyTicks::UNDEFINED 8890807214000                       # Cumulative time (in ticks) in various power states
system.mem_ctrls1.bytes_read::ruby.dir_cntrl1      3756672                       # Number of bytes read from this memory
system.mem_ctrls1.bytes_read::total           3756672                       # Number of bytes read from this memory
system.mem_ctrls1.bytes_written::ruby.dir_cntrl1      3644288                       # Number of bytes written to this memory
system.mem_ctrls1.bytes_written::total        3644288                       # Number of bytes written to this memory
system.mem_ctrls1.num_reads::ruby.dir_cntrl1        58698                       # Number of read requests responded to by this memory
system.mem_ctrls1.num_reads::total              58698                       # Number of read requests responded to by this memory
system.mem_ctrls1.num_writes::ruby.dir_cntrl1        56942                       # Number of write requests responded to by this memory
system.mem_ctrls1.num_writes::total             56942                       # Number of write requests responded to by this memory
system.mem_ctrls1.bw_read::ruby.dir_cntrl1      1023428                       # Total read bandwidth from this memory (bytes/s)
system.mem_ctrls1.bw_read::total              1023428                       # Total read bandwidth from this memory (bytes/s)
system.mem_ctrls1.bw_write::ruby.dir_cntrl1       992811                       # Write bandwidth from this memory (bytes/s)
system.mem_ctrls1.bw_write::total              992811                       # Write bandwidth from this memory (bytes/s)
system.mem_ctrls1.bw_total::ruby.dir_cntrl1      2016239                       # Total bandwidth to/from this memory (bytes/s)
system.mem_ctrls1.bw_total::total             2016239                       # Total bandwidth to/from this memory (bytes/s)
system.mem_ctrls1.readReqs                      58698                       # Number of read requests accepted
system.mem_ctrls1.writeReqs                     56942                       # Number of write requests accepted
system.mem_ctrls1.readBursts                    58698                       # Number of DRAM read bursts, including those serviced by the write queue
system.mem_ctrls1.writeBursts                   56942                       # Number of DRAM write bursts, including those merged in the write queue
system.mem_ctrls1.bytesReadDRAM               3742528                       # Total number of bytes read from DRAM
system.mem_ctrls1.bytesReadWrQ                  14144                       # Total number of bytes read from write queue
system.mem_ctrls1.bytesWritten                3645184                       # Total number of bytes written to DRAM
system.mem_ctrls1.bytesReadSys                3756672                       # Total read bytes from the system interface side
system.mem_ctrls1.bytesWrittenSys             3644288                       # Total written bytes from the system interface side
system.mem_ctrls1.servicedByWrQ                   221                       # Number of DRAM read bursts serviced by the write queue
system.mem_ctrls1.mergedWrBursts                    0                       # Number of DRAM write bursts merged with an existing one
system.mem_ctrls1.neitherReadNorWriteReqs            0                       # Number of requests that are neither read nor write
system.mem_ctrls1.perBankRdBursts::0             3607                       # Per bank write bursts
system.mem_ctrls1.perBankRdBursts::1             3742                       # Per bank write bursts
system.mem_ctrls1.perBankRdBursts::2             3591                       # Per bank write bursts
system.mem_ctrls1.perBankRdBursts::3             3658                       # Per bank write bursts
system.mem_ctrls1.perBankRdBursts::4             3660                       # Per bank write bursts
system.mem_ctrls1.perBankRdBursts::5             3625                       # Per bank write bursts
system.mem_ctrls1.perBankRdBursts::6             3600                       # Per bank write bursts
system.mem_ctrls1.perBankRdBursts::7             3493                       # Per bank write bursts
system.mem_ctrls1.perBankRdBursts::8             3386                       # Per bank write bursts
system.mem_ctrls1.perBankRdBursts::9             3728                       # Per bank write bursts
system.mem_ctrls1.perBankRdBursts::10            3967                       # Per bank write bursts
system.mem_ctrls1.perBankRdBursts::11            3964                       # Per bank write bursts
system.mem_ctrls1.perBankRdBursts::12            3479                       # Per bank write bursts
system.mem_ctrls1.perBankRdBursts::13            3659                       # Per bank write bursts
system.mem_ctrls1.perBankRdBursts::14            3681                       # Per bank write bursts
system.mem_ctrls1.perBankRdBursts::15            3637                       # Per bank write bursts
system.mem_ctrls1.perBankWrBursts::0             3627                       # Per bank write bursts
system.mem_ctrls1.perBankWrBursts::1             3623                       # Per bank write bursts
system.mem_ctrls1.perBankWrBursts::2             3426                       # Per bank write bursts
system.mem_ctrls1.perBankWrBursts::3             3573                       # Per bank write bursts
system.mem_ctrls1.perBankWrBursts::4             3462                       # Per bank write bursts
system.mem_ctrls1.perBankWrBursts::5             3531                       # Per bank write bursts
system.mem_ctrls1.perBankWrBursts::6             3482                       # Per bank write bursts
system.mem_ctrls1.perBankWrBursts::7             3399                       # Per bank write bursts
system.mem_ctrls1.perBankWrBursts::8             3538                       # Per bank write bursts
system.mem_ctrls1.perBankWrBursts::9             3739                       # Per bank write bursts
system.mem_ctrls1.perBankWrBursts::10            3961                       # Per bank write bursts
system.mem_ctrls1.perBankWrBursts::11            3892                       # Per bank write bursts
system.mem_ctrls1.perBankWrBursts::12            3445                       # Per bank write bursts
system.mem_ctrls1.perBankWrBursts::13            3506                       # Per bank write bursts
system.mem_ctrls1.perBankWrBursts::14            3473                       # Per bank write bursts
system.mem_ctrls1.perBankWrBursts::15            3279                       # Per bank write bursts
system.mem_ctrls1.numRdRetry                        0                       # Number of times read queue was full causing retry
system.mem_ctrls1.numWrRetry                       83                       # Number of times write queue was full causing retry
system.mem_ctrls1.totGap                 3674001831500                       # Total gap between requests
system.mem_ctrls1.readPktSize::0                    0                       # Read request sizes (log2)
system.mem_ctrls1.readPktSize::1                    0                       # Read request sizes (log2)
system.mem_ctrls1.readPktSize::2                    0                       # Read request sizes (log2)
system.mem_ctrls1.readPktSize::3                    0                       # Read request sizes (log2)
system.mem_ctrls1.readPktSize::4                    0                       # Read request sizes (log2)
system.mem_ctrls1.readPktSize::5                    0                       # Read request sizes (log2)
system.mem_ctrls1.readPktSize::6                58698                       # Read request sizes (log2)
system.mem_ctrls1.writePktSize::0                   0                       # Write request sizes (log2)
system.mem_ctrls1.writePktSize::1                   0                       # Write request sizes (log2)
system.mem_ctrls1.writePktSize::2                   0                       # Write request sizes (log2)
system.mem_ctrls1.writePktSize::3                   0                       # Write request sizes (log2)
system.mem_ctrls1.writePktSize::4                   0                       # Write request sizes (log2)
system.mem_ctrls1.writePktSize::5                   0                       # Write request sizes (log2)
system.mem_ctrls1.writePktSize::6               56942                       # Write request sizes (log2)
system.mem_ctrls1.rdQLenPdf::0                  58477                       # What read queue length does an incoming req see
system.mem_ctrls1.rdQLenPdf::1                      0                       # What read queue length does an incoming req see
system.mem_ctrls1.rdQLenPdf::2                      0                       # What read queue length does an incoming req see
system.mem_ctrls1.rdQLenPdf::3                      0                       # What read queue length does an incoming req see
system.mem_ctrls1.rdQLenPdf::4                      0                       # What read queue length does an incoming req see
system.mem_ctrls1.rdQLenPdf::5                      0                       # What read queue length does an incoming req see
system.mem_ctrls1.rdQLenPdf::6                      0                       # What read queue length does an incoming req see
system.mem_ctrls1.rdQLenPdf::7                      0                       # What read queue length does an incoming req see
system.mem_ctrls1.rdQLenPdf::8                      0                       # What read queue length does an incoming req see
system.mem_ctrls1.rdQLenPdf::9                      0                       # What read queue length does an incoming req see
system.mem_ctrls1.rdQLenPdf::10                     0                       # What read queue length does an incoming req see
system.mem_ctrls1.rdQLenPdf::11                     0                       # What read queue length does an incoming req see
system.mem_ctrls1.rdQLenPdf::12                     0                       # What read queue length does an incoming req see
system.mem_ctrls1.rdQLenPdf::13                     0                       # What read queue length does an incoming req see
system.mem_ctrls1.rdQLenPdf::14                     0                       # What read queue length does an incoming req see
system.mem_ctrls1.rdQLenPdf::15                     0                       # What read queue length does an incoming req see
system.mem_ctrls1.rdQLenPdf::16                     0                       # What read queue length does an incoming req see
system.mem_ctrls1.rdQLenPdf::17                     0                       # What read queue length does an incoming req see
system.mem_ctrls1.rdQLenPdf::18                     0                       # What read queue length does an incoming req see
system.mem_ctrls1.rdQLenPdf::19                     0                       # What read queue length does an incoming req see
system.mem_ctrls1.rdQLenPdf::20                     0                       # What read queue length does an incoming req see
system.mem_ctrls1.rdQLenPdf::21                     0                       # What read queue length does an incoming req see
system.mem_ctrls1.rdQLenPdf::22                     0                       # What read queue length does an incoming req see
system.mem_ctrls1.rdQLenPdf::23                     0                       # What read queue length does an incoming req see
system.mem_ctrls1.rdQLenPdf::24                     0                       # What read queue length does an incoming req see
system.mem_ctrls1.rdQLenPdf::25                     0                       # What read queue length does an incoming req see
system.mem_ctrls1.rdQLenPdf::26                     0                       # What read queue length does an incoming req see
system.mem_ctrls1.rdQLenPdf::27                     0                       # What read queue length does an incoming req see
system.mem_ctrls1.rdQLenPdf::28                     0                       # What read queue length does an incoming req see
system.mem_ctrls1.rdQLenPdf::29                     0                       # What read queue length does an incoming req see
system.mem_ctrls1.rdQLenPdf::30                     0                       # What read queue length does an incoming req see
system.mem_ctrls1.rdQLenPdf::31                     0                       # What read queue length does an incoming req see
system.mem_ctrls1.wrQLenPdf::0                      0                       # What write queue length does an incoming req see
system.mem_ctrls1.wrQLenPdf::1                      0                       # What write queue length does an incoming req see
system.mem_ctrls1.wrQLenPdf::2                      0                       # What write queue length does an incoming req see
system.mem_ctrls1.wrQLenPdf::3                      0                       # What write queue length does an incoming req see
system.mem_ctrls1.wrQLenPdf::4                      0                       # What write queue length does an incoming req see
system.mem_ctrls1.wrQLenPdf::5                      0                       # What write queue length does an incoming req see
system.mem_ctrls1.wrQLenPdf::6                      0                       # What write queue length does an incoming req see
system.mem_ctrls1.wrQLenPdf::7                      0                       # What write queue length does an incoming req see
system.mem_ctrls1.wrQLenPdf::8                      0                       # What write queue length does an incoming req see
system.mem_ctrls1.wrQLenPdf::9                      0                       # What write queue length does an incoming req see
system.mem_ctrls1.wrQLenPdf::10                     0                       # What write queue length does an incoming req see
system.mem_ctrls1.wrQLenPdf::11                     0                       # What write queue length does an incoming req see
system.mem_ctrls1.wrQLenPdf::12                     0                       # What write queue length does an incoming req see
system.mem_ctrls1.wrQLenPdf::13                     0                       # What write queue length does an incoming req see
system.mem_ctrls1.wrQLenPdf::14                     0                       # What write queue length does an incoming req see
system.mem_ctrls1.wrQLenPdf::15                   185                       # What write queue length does an incoming req see
system.mem_ctrls1.wrQLenPdf::16                   243                       # What write queue length does an incoming req see
system.mem_ctrls1.wrQLenPdf::17                  3373                       # What write queue length does an incoming req see
system.mem_ctrls1.wrQLenPdf::18                  3421                       # What write queue length does an incoming req see
system.mem_ctrls1.wrQLenPdf::19                  3494                       # What write queue length does an incoming req see
system.mem_ctrls1.wrQLenPdf::20                  3473                       # What write queue length does an incoming req see
system.mem_ctrls1.wrQLenPdf::21                  3417                       # What write queue length does an incoming req see
system.mem_ctrls1.wrQLenPdf::22                  3483                       # What write queue length does an incoming req see
system.mem_ctrls1.wrQLenPdf::23                  3428                       # What write queue length does an incoming req see
system.mem_ctrls1.wrQLenPdf::24                  3482                       # What write queue length does an incoming req see
system.mem_ctrls1.wrQLenPdf::25                  3570                       # What write queue length does an incoming req see
system.mem_ctrls1.wrQLenPdf::26                  3454                       # What write queue length does an incoming req see
system.mem_ctrls1.wrQLenPdf::27                  3382                       # What write queue length does an incoming req see
system.mem_ctrls1.wrQLenPdf::28                  3390                       # What write queue length does an incoming req see
system.mem_ctrls1.wrQLenPdf::29                  3363                       # What write queue length does an incoming req see
system.mem_ctrls1.wrQLenPdf::30                  3344                       # What write queue length does an incoming req see
system.mem_ctrls1.wrQLenPdf::31                  3332                       # What write queue length does an incoming req see
system.mem_ctrls1.wrQLenPdf::32                  3333                       # What write queue length does an incoming req see
system.mem_ctrls1.wrQLenPdf::33                    76                       # What write queue length does an incoming req see
system.mem_ctrls1.wrQLenPdf::34                    71                       # What write queue length does an incoming req see
system.mem_ctrls1.wrQLenPdf::35                    72                       # What write queue length does an incoming req see
system.mem_ctrls1.wrQLenPdf::36                    73                       # What write queue length does an incoming req see
system.mem_ctrls1.wrQLenPdf::37                    72                       # What write queue length does an incoming req see
system.mem_ctrls1.wrQLenPdf::38                    68                       # What write queue length does an incoming req see
system.mem_ctrls1.wrQLenPdf::39                    58                       # What write queue length does an incoming req see
system.mem_ctrls1.wrQLenPdf::40                    55                       # What write queue length does an incoming req see
system.mem_ctrls1.wrQLenPdf::41                    59                       # What write queue length does an incoming req see
system.mem_ctrls1.wrQLenPdf::42                    58                       # What write queue length does an incoming req see
system.mem_ctrls1.wrQLenPdf::43                    59                       # What write queue length does an incoming req see
system.mem_ctrls1.wrQLenPdf::44                    53                       # What write queue length does an incoming req see
system.mem_ctrls1.wrQLenPdf::45                    50                       # What write queue length does an incoming req see
system.mem_ctrls1.wrQLenPdf::46                    54                       # What write queue length does an incoming req see
system.mem_ctrls1.wrQLenPdf::47                    56                       # What write queue length does an incoming req see
system.mem_ctrls1.wrQLenPdf::48                    53                       # What write queue length does an incoming req see
system.mem_ctrls1.wrQLenPdf::49                    55                       # What write queue length does an incoming req see
system.mem_ctrls1.wrQLenPdf::50                    53                       # What write queue length does an incoming req see
system.mem_ctrls1.wrQLenPdf::51                    43                       # What write queue length does an incoming req see
system.mem_ctrls1.wrQLenPdf::52                    37                       # What write queue length does an incoming req see
system.mem_ctrls1.wrQLenPdf::53                    34                       # What write queue length does an incoming req see
system.mem_ctrls1.wrQLenPdf::54                    40                       # What write queue length does an incoming req see
system.mem_ctrls1.wrQLenPdf::55                    47                       # What write queue length does an incoming req see
system.mem_ctrls1.wrQLenPdf::56                    60                       # What write queue length does an incoming req see
system.mem_ctrls1.wrQLenPdf::57                    60                       # What write queue length does an incoming req see
system.mem_ctrls1.wrQLenPdf::58                    62                       # What write queue length does an incoming req see
system.mem_ctrls1.wrQLenPdf::59                    55                       # What write queue length does an incoming req see
system.mem_ctrls1.wrQLenPdf::60                    37                       # What write queue length does an incoming req see
system.mem_ctrls1.wrQLenPdf::61                    33                       # What write queue length does an incoming req see
system.mem_ctrls1.wrQLenPdf::62                    46                       # What write queue length does an incoming req see
system.mem_ctrls1.wrQLenPdf::63                   126                       # What write queue length does an incoming req see
system.mem_ctrls1.bytesPerActivate::samples        33515                       # Bytes accessed per row activation
system.mem_ctrls1.bytesPerActivate::mean   220.430016                       # Bytes accessed per row activation
system.mem_ctrls1.bytesPerActivate::gmean   162.430165                       # Bytes accessed per row activation
system.mem_ctrls1.bytesPerActivate::stdev   186.892000                       # Bytes accessed per row activation
system.mem_ctrls1.bytesPerActivate::0-127        10453     31.19%     31.19% # Bytes accessed per row activation
system.mem_ctrls1.bytesPerActivate::128-255        10604     31.64%     62.83% # Bytes accessed per row activation
system.mem_ctrls1.bytesPerActivate::256-383         5794     17.29%     80.12% # Bytes accessed per row activation
system.mem_ctrls1.bytesPerActivate::384-511         4229     12.62%     92.73% # Bytes accessed per row activation
system.mem_ctrls1.bytesPerActivate::512-639         1080      3.22%     95.96% # Bytes accessed per row activation
system.mem_ctrls1.bytesPerActivate::640-767          446      1.33%     97.29% # Bytes accessed per row activation
system.mem_ctrls1.bytesPerActivate::768-895          242      0.72%     98.01% # Bytes accessed per row activation
system.mem_ctrls1.bytesPerActivate::896-1023          218      0.65%     98.66% # Bytes accessed per row activation
system.mem_ctrls1.bytesPerActivate::1024-1151          449      1.34%    100.00% # Bytes accessed per row activation
system.mem_ctrls1.bytesPerActivate::total        33515                       # Bytes accessed per row activation
system.mem_ctrls1.rdPerTurnAround::samples         3330                       # Reads before turning the bus around for writes
system.mem_ctrls1.rdPerTurnAround::mean     17.567568                       # Reads before turning the bus around for writes
system.mem_ctrls1.rdPerTurnAround::stdev     8.066659                       # Reads before turning the bus around for writes
system.mem_ctrls1.rdPerTurnAround::0-7            184      5.53%      5.53% # Reads before turning the bus around for writes
system.mem_ctrls1.rdPerTurnAround::8-15            36      1.08%      6.61% # Reads before turning the bus around for writes
system.mem_ctrls1.rdPerTurnAround::16-23         2841     85.32%     91.92% # Reads before turning the bus around for writes
system.mem_ctrls1.rdPerTurnAround::24-31          179      5.38%     97.30% # Reads before turning the bus around for writes
system.mem_ctrls1.rdPerTurnAround::32-39           49      1.47%     98.77% # Reads before turning the bus around for writes
system.mem_ctrls1.rdPerTurnAround::40-47           16      0.48%     99.25% # Reads before turning the bus around for writes
system.mem_ctrls1.rdPerTurnAround::48-55            8      0.24%     99.49% # Reads before turning the bus around for writes
system.mem_ctrls1.rdPerTurnAround::56-63            3      0.09%     99.58% # Reads before turning the bus around for writes
system.mem_ctrls1.rdPerTurnAround::64-71            3      0.09%     99.67% # Reads before turning the bus around for writes
system.mem_ctrls1.rdPerTurnAround::72-79            4      0.12%     99.79% # Reads before turning the bus around for writes
system.mem_ctrls1.rdPerTurnAround::80-87            3      0.09%     99.88% # Reads before turning the bus around for writes
system.mem_ctrls1.rdPerTurnAround::104-111            1      0.03%     99.91% # Reads before turning the bus around for writes
system.mem_ctrls1.rdPerTurnAround::112-119            1      0.03%     99.94% # Reads before turning the bus around for writes
system.mem_ctrls1.rdPerTurnAround::128-135            1      0.03%     99.97% # Reads before turning the bus around for writes
system.mem_ctrls1.rdPerTurnAround::208-215            1      0.03%    100.00% # Reads before turning the bus around for writes
system.mem_ctrls1.rdPerTurnAround::total         3330                       # Reads before turning the bus around for writes
system.mem_ctrls1.wrPerTurnAround::samples         3330                       # Writes before turning the bus around for reads
system.mem_ctrls1.wrPerTurnAround::mean     17.103904                       # Writes before turning the bus around for reads
system.mem_ctrls1.wrPerTurnAround::gmean    16.663284                       # Writes before turning the bus around for reads
system.mem_ctrls1.wrPerTurnAround::stdev     5.883367                       # Writes before turning the bus around for reads
system.mem_ctrls1.wrPerTurnAround::16-17         3137     94.20%     94.20% # Writes before turning the bus around for reads
system.mem_ctrls1.wrPerTurnAround::18-19           28      0.84%     95.05% # Writes before turning the bus around for reads
system.mem_ctrls1.wrPerTurnAround::20-21            5      0.15%     95.20% # Writes before turning the bus around for reads
system.mem_ctrls1.wrPerTurnAround::22-23            5      0.15%     95.35% # Writes before turning the bus around for reads
system.mem_ctrls1.wrPerTurnAround::24-25           14      0.42%     95.77% # Writes before turning the bus around for reads
system.mem_ctrls1.wrPerTurnAround::26-27           10      0.30%     96.07% # Writes before turning the bus around for reads
system.mem_ctrls1.wrPerTurnAround::28-29           25      0.75%     96.82% # Writes before turning the bus around for reads
system.mem_ctrls1.wrPerTurnAround::30-31            9      0.27%     97.09% # Writes before turning the bus around for reads
system.mem_ctrls1.wrPerTurnAround::32-33           17      0.51%     97.60% # Writes before turning the bus around for reads
system.mem_ctrls1.wrPerTurnAround::34-35            7      0.21%     97.81% # Writes before turning the bus around for reads
system.mem_ctrls1.wrPerTurnAround::36-37           15      0.45%     98.26% # Writes before turning the bus around for reads
system.mem_ctrls1.wrPerTurnAround::38-39            4      0.12%     98.38% # Writes before turning the bus around for reads
system.mem_ctrls1.wrPerTurnAround::40-41            6      0.18%     98.56% # Writes before turning the bus around for reads
system.mem_ctrls1.wrPerTurnAround::42-43            6      0.18%     98.74% # Writes before turning the bus around for reads
system.mem_ctrls1.wrPerTurnAround::44-45            1      0.03%     98.77% # Writes before turning the bus around for reads
system.mem_ctrls1.wrPerTurnAround::46-47            2      0.06%     98.83% # Writes before turning the bus around for reads
system.mem_ctrls1.wrPerTurnAround::48-49           20      0.60%     99.43% # Writes before turning the bus around for reads
system.mem_ctrls1.wrPerTurnAround::50-51            2      0.06%     99.49% # Writes before turning the bus around for reads
system.mem_ctrls1.wrPerTurnAround::54-55            1      0.03%     99.52% # Writes before turning the bus around for reads
system.mem_ctrls1.wrPerTurnAround::60-61            2      0.06%     99.58% # Writes before turning the bus around for reads
system.mem_ctrls1.wrPerTurnAround::64-65            4      0.12%     99.70% # Writes before turning the bus around for reads
system.mem_ctrls1.wrPerTurnAround::68-69            2      0.06%     99.76% # Writes before turning the bus around for reads
system.mem_ctrls1.wrPerTurnAround::72-73            3      0.09%     99.85% # Writes before turning the bus around for reads
system.mem_ctrls1.wrPerTurnAround::80-81            1      0.03%     99.88% # Writes before turning the bus around for reads
system.mem_ctrls1.wrPerTurnAround::88-89            1      0.03%     99.91% # Writes before turning the bus around for reads
system.mem_ctrls1.wrPerTurnAround::100-101            1      0.03%     99.94% # Writes before turning the bus around for reads
system.mem_ctrls1.wrPerTurnAround::104-105            1      0.03%     99.97% # Writes before turning the bus around for reads
system.mem_ctrls1.wrPerTurnAround::108-109            1      0.03%    100.00% # Writes before turning the bus around for reads
system.mem_ctrls1.wrPerTurnAround::total         3330                       # Writes before turning the bus around for reads
system.mem_ctrls1.totQLat                  4045878000                       # Total ticks spent queuing
system.mem_ctrls1.totMemAccLat             5142321750                       # Total ticks spent from burst creation until serviced by the DRAM
system.mem_ctrls1.totBusLat                 292385000                       # Total ticks spent in databus transfers
system.mem_ctrls1.avgQLat                    69187.51                       # Average queueing delay per DRAM burst
system.mem_ctrls1.avgBusLat                   5000.00                       # Average bus latency per DRAM burst
system.mem_ctrls1.avgMemAccLat               87937.51                       # Average memory access latency per DRAM burst
system.mem_ctrls1.avgRdBW                        1.02                       # Average DRAM read bandwidth in MiByte/s
system.mem_ctrls1.avgWrBW                        0.99                       # Average achieved write bandwidth in MiByte/s
system.mem_ctrls1.avgRdBWSys                     1.02                       # Average system read bandwidth in MiByte/s
system.mem_ctrls1.avgWrBWSys                     0.99                       # Average system write bandwidth in MiByte/s
system.mem_ctrls1.peakBW                     12800.00                       # Theoretical peak bandwidth in MiByte/s
system.mem_ctrls1.busUtil                        0.02                       # Data bus utilization in percentage
system.mem_ctrls1.busUtilRead                    0.01                       # Data bus utilization in percentage for reads
system.mem_ctrls1.busUtilWrite                   0.01                       # Data bus utilization in percentage for writes
system.mem_ctrls1.avgRdQLen                      1.00                       # Average read queue length when enqueuing
system.mem_ctrls1.avgWrQLen                     29.22                       # Average write queue length when enqueuing
system.mem_ctrls1.readRowHits                   39835                       # Number of row buffer hits during reads
system.mem_ctrls1.writeRowHits                  42083                       # Number of row buffer hits during writes
system.mem_ctrls1.readRowHitRate                68.12                       # Row buffer hit rate for reads
system.mem_ctrls1.writeRowHitRate               73.91                       # Row buffer hit rate for writes
system.mem_ctrls1.avgGap                  31771029.33                       # Average gap between requests
system.mem_ctrls1.pageHitRate                   70.97                       # Row buffer hit rate, read and write combined
system.mem_ctrls1_0.actEnergy               160557180                       # Energy for activate commands per rank (pJ)
system.mem_ctrls1_0.preEnergy                85338165                       # Energy for precharge commands per rank (pJ)
system.mem_ctrls1_0.readEnergy              328397160                       # Energy for read commands per rank (pJ)
system.mem_ctrls1_0.writeEnergy             169185420                       # Energy for write commands per rank (pJ)
system.mem_ctrls1_0.refreshEnergy        13570636560.000004                       # Energy for refresh commands per rank (pJ)
system.mem_ctrls1_0.actBackEnergy          4203937530                       # Energy for active background per rank (pJ)
system.mem_ctrls1_0.preBackEnergy           837543360                       # Energy for precharge background per rank (pJ)
system.mem_ctrls1_0.actPowerDownEnergy    33907016010                       # Energy for active power-down per rank (pJ)
system.mem_ctrls1_0.prePowerDownEnergy    18859894080                       # Energy for precharge power-down per rank (pJ)
system.mem_ctrls1_0.selfRefreshEnergy    2104246633050                       # Energy for self refresh per rank (pJ)
system.mem_ctrls1_0.totalEnergy          2176372025175                       # Total energy per rank (pJ)
system.mem_ctrls1_0.averagePower           244.789023                       # Core power per rank (mW)
system.mem_ctrls1_0.totalIdleTime        3666360208250                       # Total Idle time Per DRAM Rank
system.mem_ctrls1_0.memoryStateTime::IDLE   1103637000                       # Time in different power states
system.mem_ctrls1_0.memoryStateTime::REF   3798502000                       # Time in different power states
system.mem_ctrls1_0.memoryStateTime::SREF 3585706393250                       # Time in different power states
system.mem_ctrls1_0.memoryStateTime::PRE_PDN  32620125000                       # Time in different power states
system.mem_ctrls1_0.memoryStateTime::ACT   2956885500                       # Time in different power states
system.mem_ctrls1_0.memoryStateTime::ACT_PDN  48033690000                       # Time in different power states
system.mem_ctrls1_1.actEnergy               151732140                       # Energy for activate commands per rank (pJ)
system.mem_ctrls1_1.preEnergy                80647545                       # Energy for precharge commands per rank (pJ)
system.mem_ctrls1_1.readEnergy              330017940                       # Energy for read commands per rank (pJ)
system.mem_ctrls1_1.writeEnergy             169368120                       # Energy for write commands per rank (pJ)
system.mem_ctrls1_1.refreshEnergy        13089373440.000004                       # Energy for refresh commands per rank (pJ)
system.mem_ctrls1_1.actBackEnergy          4145182500                       # Energy for active background per rank (pJ)
system.mem_ctrls1_1.preBackEnergy           739777920                       # Energy for precharge background per rank (pJ)
system.mem_ctrls1_1.actPowerDownEnergy    33461020080                       # Energy for active power-down per rank (pJ)
system.mem_ctrls1_1.prePowerDownEnergy    17859210720                       # Energy for precharge power-down per rank (pJ)
system.mem_ctrls1_1.selfRefreshEnergy    2105036715735                       # Energy for self refresh per rank (pJ)
system.mem_ctrls1_1.totalEnergy          2175067043370                       # Total energy per rank (pJ)
system.mem_ctrls1_1.averagePower           244.642246                       # Core power per rank (mW)
system.mem_ctrls1_1.totalIdleTime        3666176070750                       # Total Idle time Per DRAM Rank
system.mem_ctrls1_1.memoryStateTime::IDLE    998690500                       # Time in different power states
system.mem_ctrls1_1.memoryStateTime::REF   3853778000                       # Time in different power states
system.mem_ctrls1_1.memoryStateTime::SREF 3583896189000                       # Time in different power states
system.mem_ctrls1_1.memoryStateTime::PRE_PDN  32945915000                       # Time in different power states
system.mem_ctrls1_1.memoryStateTime::ACT   2937617250                       # Time in different power states
system.mem_ctrls1_1.memoryStateTime::ACT_PDN  49369581750                       # Time in different power states
system.mem_ctrls2.pwrStateResidencyTicks::UNDEFINED 8890807214000                       # Cumulative time (in ticks) in various power states
system.mem_ctrls2.bytes_read::ruby.dir_cntrl2      3755648                       # Number of bytes read from this memory
system.mem_ctrls2.bytes_read::total           3755648                       # Number of bytes read from this memory
system.mem_ctrls2.bytes_written::ruby.dir_cntrl2      3635584                       # Number of bytes written to this memory
system.mem_ctrls2.bytes_written::total        3635584                       # Number of bytes written to this memory
system.mem_ctrls2.num_reads::ruby.dir_cntrl2        58682                       # Number of read requests responded to by this memory
system.mem_ctrls2.num_reads::total              58682                       # Number of read requests responded to by this memory
system.mem_ctrls2.num_writes::ruby.dir_cntrl2        56806                       # Number of write requests responded to by this memory
system.mem_ctrls2.num_writes::total             56806                       # Number of write requests responded to by this memory
system.mem_ctrls2.bw_read::ruby.dir_cntrl2      1023149                       # Total read bandwidth from this memory (bytes/s)
system.mem_ctrls2.bw_read::total              1023149                       # Total read bandwidth from this memory (bytes/s)
system.mem_ctrls2.bw_write::ruby.dir_cntrl2       990440                       # Write bandwidth from this memory (bytes/s)
system.mem_ctrls2.bw_write::total              990440                       # Write bandwidth from this memory (bytes/s)
system.mem_ctrls2.bw_total::ruby.dir_cntrl2      2013589                       # Total bandwidth to/from this memory (bytes/s)
system.mem_ctrls2.bw_total::total             2013589                       # Total bandwidth to/from this memory (bytes/s)
system.mem_ctrls2.readReqs                      58682                       # Number of read requests accepted
system.mem_ctrls2.writeReqs                     56806                       # Number of write requests accepted
system.mem_ctrls2.readBursts                    58682                       # Number of DRAM read bursts, including those serviced by the write queue
system.mem_ctrls2.writeBursts                   56806                       # Number of DRAM write bursts, including those merged in the write queue
system.mem_ctrls2.bytesReadDRAM               3741376                       # Total number of bytes read from DRAM
system.mem_ctrls2.bytesReadWrQ                  14272                       # Total number of bytes read from write queue
system.mem_ctrls2.bytesWritten                3635456                       # Total number of bytes written to DRAM
system.mem_ctrls2.bytesReadSys                3755648                       # Total read bytes from the system interface side
system.mem_ctrls2.bytesWrittenSys             3635584                       # Total written bytes from the system interface side
system.mem_ctrls2.servicedByWrQ                   223                       # Number of DRAM read bursts serviced by the write queue
system.mem_ctrls2.mergedWrBursts                    0                       # Number of DRAM write bursts merged with an existing one
system.mem_ctrls2.neitherReadNorWriteReqs            0                       # Number of requests that are neither read nor write
system.mem_ctrls2.perBankRdBursts::0             3634                       # Per bank write bursts
system.mem_ctrls2.perBankRdBursts::1             3706                       # Per bank write bursts
system.mem_ctrls2.perBankRdBursts::2             3563                       # Per bank write bursts
system.mem_ctrls2.perBankRdBursts::3             3676                       # Per bank write bursts
system.mem_ctrls2.perBankRdBursts::4             3689                       # Per bank write bursts
system.mem_ctrls2.perBankRdBursts::5             3630                       # Per bank write bursts
system.mem_ctrls2.perBankRdBursts::6             3591                       # Per bank write bursts
system.mem_ctrls2.perBankRdBursts::7             3518                       # Per bank write bursts
system.mem_ctrls2.perBankRdBursts::8             3396                       # Per bank write bursts
system.mem_ctrls2.perBankRdBursts::9             3687                       # Per bank write bursts
system.mem_ctrls2.perBankRdBursts::10            3937                       # Per bank write bursts
system.mem_ctrls2.perBankRdBursts::11            4009                       # Per bank write bursts
system.mem_ctrls2.perBankRdBursts::12            3464                       # Per bank write bursts
system.mem_ctrls2.perBankRdBursts::13            3670                       # Per bank write bursts
system.mem_ctrls2.perBankRdBursts::14            3685                       # Per bank write bursts
system.mem_ctrls2.perBankRdBursts::15            3604                       # Per bank write bursts
system.mem_ctrls2.perBankWrBursts::0             3647                       # Per bank write bursts
system.mem_ctrls2.perBankWrBursts::1             3591                       # Per bank write bursts
system.mem_ctrls2.perBankWrBursts::2             3418                       # Per bank write bursts
system.mem_ctrls2.perBankWrBursts::3             3586                       # Per bank write bursts
system.mem_ctrls2.perBankWrBursts::4             3463                       # Per bank write bursts
system.mem_ctrls2.perBankWrBursts::5             3509                       # Per bank write bursts
system.mem_ctrls2.perBankWrBursts::6             3416                       # Per bank write bursts
system.mem_ctrls2.perBankWrBursts::7             3408                       # Per bank write bursts
system.mem_ctrls2.perBankWrBursts::8             3565                       # Per bank write bursts
system.mem_ctrls2.perBankWrBursts::9             3700                       # Per bank write bursts
system.mem_ctrls2.perBankWrBursts::10            3897                       # Per bank write bursts
system.mem_ctrls2.perBankWrBursts::11            3948                       # Per bank write bursts
system.mem_ctrls2.perBankWrBursts::12            3430                       # Per bank write bursts
system.mem_ctrls2.perBankWrBursts::13            3507                       # Per bank write bursts
system.mem_ctrls2.perBankWrBursts::14            3479                       # Per bank write bursts
system.mem_ctrls2.perBankWrBursts::15            3240                       # Per bank write bursts
system.mem_ctrls2.numRdRetry                        0                       # Number of times read queue was full causing retry
system.mem_ctrls2.numWrRetry                       66                       # Number of times write queue was full causing retry
system.mem_ctrls2.totGap                 3672662063000                       # Total gap between requests
system.mem_ctrls2.readPktSize::0                    0                       # Read request sizes (log2)
system.mem_ctrls2.readPktSize::1                    0                       # Read request sizes (log2)
system.mem_ctrls2.readPktSize::2                    0                       # Read request sizes (log2)
system.mem_ctrls2.readPktSize::3                    0                       # Read request sizes (log2)
[...]
system.ruby.L1Cache_Controller.E.L1_Replacement::total      1590086                      
system.ruby.L1Cache_Controller.M.Load    |   202186060    100.00%    100.00% |           0      0.00%    100.00% |           0      0.00%    100.00% |           0      0.00%    100.00% |           0      0.00%    100.00% |           0      0.00%    100.00% |           0      0.00%    100.00% |           0      0.00%    100.00%
system.ruby.L1Cache_Controller.M.Load::total    202186060                      
system.ruby.L1Cache_Controller.M.Store   |   168587881    100.00%    100.00% |           0      0.00%    100.00% |           0      0.00%    100.00% |           0      0.00%    100.00% |           0      0.00%    100.00% |           0      0.00%    100.00% |           0      0.00%    100.00% |           0      0.00%    100.00%
system.ruby.L1Cache_Controller.M.Store::total    168587881                      
system.ruby.L1Cache_Controller.M.Inv     |         181    100.00%    100.00% |           0      0.00%    100.00% |           0      0.00%    100.00% |           0      0.00%    100.00% |           0      0.00%    100.00% |           0      0.00%    100.00% |           0      0.00%    100.00% |           0      0.00%    100.00%
system.ruby.L1Cache_Controller.M.Inv::total          181                      
system.ruby.L1Cache_Controller.M.L1_Replacement |     1812412    100.00%    100.00% |           0      0.00%    100.00% |           0      0.00%    100.00% |           0      0.00%    100.00% |           0      0.00%    100.00% |           0      0.00%    100.00% |           0      0.00%    100.00% |           0      0.00%    100.00%
system.ruby.L1Cache_Controller.M.L1_Replacement::total      1812412                      
system.ruby.L1Cache_Controller.IS.Data_Exclusive |     2326659    100.00%    100.00% |           0      0.00%    100.00% |           0      0.00%    100.00% |           0      0.00%    100.00% |           0      0.00%    100.00% |           0      0.00%    100.00% |           0      0.00%    100.00% |           0      0.00%    100.00%
system.ruby.L1Cache_Controller.IS.Data_Exclusive::total      2326659                      
system.ruby.L1Cache_Controller.IS.Data_all_Acks |      564519    100.00%    100.00% |           0      0.00%    100.00% |           0      0.00%    100.00% |           0      0.00%    100.00% |           0      0.00%    100.00% |           0      0.00%    100.00% |           0      0.00%    100.00% |           0      0.00%    100.00%
system.ruby.L1Cache_Controller.IS.Data_all_Acks::total       564519                      
system.ruby.L1Cache_Controller.IM.Data_all_Acks |     1076033    100.00%    100.00% |           0      0.00%    100.00% |           0      0.00%    100.00% |           0      0.00%    100.00% |           0      0.00%    100.00% |           0      0.00%    100.00% |           0      0.00%    100.00% |           0      0.00%    100.00%
system.ruby.L1Cache_Controller.IM.Data_all_Acks::total      1076033                      
system.ruby.L1Cache_Controller.M_I.Ifetch |           6    100.00%    100.00% |           0      0.00%    100.00% |           0      0.00%    100.00% |           0      0.00%    100.00% |           0      0.00%    100.00% |           0      0.00%    100.00% |           0      0.00%    100.00% |           0      0.00%    100.00%
system.ruby.L1Cache_Controller.M_I.Ifetch::total            6                      
system.ruby.L1Cache_Controller.M_I.WB_Ack |     3402498    100.00%    100.00% |           0      0.00%    100.00% |           0      0.00%    100.00% |           0      0.00%    100.00% |           0      0.00%    100.00% |           0      0.00%    100.00% |           0      0.00%    100.00% |           0      0.00%    100.00%
system.ruby.L1Cache_Controller.M_I.WB_Ack::total      3402498                      
system.ruby.L2Cache_Controller.L1_GET_INSTR |       71606     12.69%     12.69% |       69994     12.40%     25.09% |       65350     11.58%     36.67% |       69320     12.28%     48.95% |       69446     12.30%     61.25% |       75128     13.31%     74.56% |       77607     13.75%     88.32% |       65948     11.68%    100.00%
system.ruby.L2Cache_Controller.L1_GET_INSTR::total       564399                      
system.ruby.L2Cache_Controller.L1_GETS   |      319086     13.71%     13.71% |      281223     12.09%     25.80% |      288559     12.40%     38.20% |      283187     12.17%     50.37% |      288387     12.39%     62.77% |      293962     12.63%     75.40% |      275284     11.83%     87.23% |      297091     12.77%    100.00%
system.ruby.L2Cache_Controller.L1_GETS::total      2326779                      
system.ruby.L2Cache_Controller.L1_GETX   |      138024     12.83%     12.83% |      131854     12.25%     25.08% |      136070     12.65%     37.73% |      133228     12.38%     50.11% |      132989     12.36%     62.47% |      137344     12.76%     75.23% |      134436     12.49%     87.72% |      132088     12.28%    100.00%
system.ruby.L2Cache_Controller.L1_GETX::total      1076033                      
system.ruby.L2Cache_Controller.L1_PUTX   |      456928     13.43%     13.43% |      413074     12.14%     25.57% |      424546     12.48%     38.05% |      416386     12.24%     50.28% |      421374     12.38%     62.67% |      431303     12.68%     75.34% |      409711     12.04%     87.39% |      429176     12.61%    100.00%
system.ruby.L2Cache_Controller.L1_PUTX::total      3402498                      
system.ruby.L2Cache_Controller.L2_Replacement |       50346     12.52%     12.52% |       50404     12.54%     25.06% |       50268     12.50%     37.56% |       50453     12.55%     50.11% |       50140     12.47%     62.59% |       50213     12.49%     75.08% |       50028     12.44%     87.52% |       50175     12.48%    100.00%
system.ruby.L2Cache_Controller.L2_Replacement::total       402027                      
system.ruby.L2Cache_Controller.L2_Replacement_clean |        7023     12.78%     12.78% |        6966     12.68%     25.47% |        6890     12.54%     38.01% |        6785     12.35%     50.36% |        6849     12.47%     62.83% |        6767     12.32%     75.15% |        6821     12.42%     87.56% |        6832     12.44%    100.00%
system.ruby.L2Cache_Controller.L2_Replacement_clean::total        54933                      
system.ruby.L2Cache_Controller.Mem_Data  |       59026     12.58%     12.58% |       58698     12.51%     25.10% |       58682     12.51%     37.61% |       58593     12.49%     50.10% |       58507     12.47%     62.57% |       58424     12.46%     75.03% |       58561     12.48%     87.51% |       58569     12.49%    100.00%
system.ruby.L2Cache_Controller.Mem_Data::total       469060                      
system.ruby.L2Cache_Controller.Mem_Ack   |       57723     12.59%     12.59% |       57543     12.55%     25.14% |       57323     12.50%     37.64% |       57403     12.52%     50.16% |       57154     12.47%     62.63% |       57145     12.46%     75.09% |       57015     12.44%     87.53% |       57175     12.47%    100.00%
system.ruby.L2Cache_Controller.Mem_Ack::total       458481                      
system.ruby.L2Cache_Controller.WB_Data   |         181    100.00%    100.00% |           0      0.00%    100.00% |           0      0.00%    100.00% |           0      0.00%    100.00% |           0      0.00%    100.00% |           0      0.00%    100.00% |           0      0.00%    100.00% |           0      0.00%    100.00%
system.ruby.L2Cache_Controller.WB_Data::total          181                      
system.ruby.L2Cache_Controller.Ack_all   |        1684     12.70%     12.70% |        1685     12.71%     25.40% |        1626     12.26%     37.66% |        1593     12.01%     49.68% |        1645     12.40%     62.08% |        1638     12.35%     74.43% |        1684     12.70%     87.13% |        1707     12.87%    100.00%
system.ruby.L2Cache_Controller.Ack_all::total        13262                      
system.ruby.L2Cache_Controller.Exclusive_Unblock |      457110     13.43%     13.43% |      413075     12.14%     25.57% |      424547     12.48%     38.05% |      416388     12.24%     50.29% |      421375     12.38%     62.67% |      431305     12.68%     75.35% |      409714     12.04%     87.39% |      429178     12.61%    100.00%
system.ruby.L2Cache_Controller.Exclusive_Unblock::total      3402692                      
system.ruby.L2Cache_Controller.MEM_Inv   |         708     23.27%     23.27% |         346     11.37%     34.65% |         330     10.85%     45.50% |         330     10.85%     56.34% |         330     10.85%     67.19% |         330     10.85%     78.04% |         332     10.91%     88.95% |         336     11.05%    100.00%
system.ruby.L2Cache_Controller.MEM_Inv::total         3042                      
system.ruby.L2Cache_Controller.NP.L1_GET_INSTR |        1005     12.55%     12.55% |         988     12.34%     24.89% |         995     12.43%     37.32% |         978     12.21%     49.53% |         990     12.36%     61.90% |         993     12.40%     74.30% |        1022     12.76%     87.06% |        1036     12.94%    100.00%
system.ruby.L2Cache_Controller.NP.L1_GET_INSTR::total         8007                      
system.ruby.L2Cache_Controller.NP.L1_GETS |       15765     12.85%     12.85% |       15295     12.46%     25.31% |       15397     12.55%     37.86% |       15390     12.54%     50.40% |       15191     12.38%     62.78% |       15232     12.41%     75.19% |       15331     12.49%     87.68% |       15116     12.32%    100.00%
system.ruby.L2Cache_Controller.NP.L1_GETS::total       122717                      
system.ruby.L2Cache_Controller.NP.L1_GETX |       42256     12.49%     12.49% |       42415     12.54%     25.03% |       42290     12.50%     37.53% |       42225     12.48%     50.01% |       42326     12.51%     62.52% |       42199     12.47%     74.99% |       42208     12.48%     87.46% |       42417     12.54%    100.00%
system.ruby.L2Cache_Controller.NP.L1_GETX::total       338336                      
system.ruby.L2Cache_Controller.SS.L1_GET_INSTR |       70600     12.69%     12.69% |       69003     12.40%     25.09% |       64350     11.57%     36.66% |       68341     12.28%     48.94% |       68454     12.30%     61.24% |       74131     13.32%     74.57% |       76582     13.76%     88.33% |       64912     11.67%    100.00%
system.ruby.L2Cache_Controller.SS.L1_GET_INSTR::total       556373                      
system.ruby.L2Cache_Controller.SS.L1_GETS |           0      0.00%      0.00% |           2      1.67%      1.67% |          82     68.33%     70.00% |          27     22.50%     92.50% |           1      0.83%     93.33% |           1      0.83%     94.17% |           6      5.00%     99.17% |           1      0.83%    100.00%
system.ruby.L2Cache_Controller.SS.L1_GETS::total          120                      
system.ruby.L2Cache_Controller.SS.L2_Replacement |           0      0.00%      0.00% |           1     20.00%     20.00% |           0      0.00%     20.00% |           2     40.00%     60.00% |           0      0.00%     60.00% |           1     20.00%     80.00% |           1     20.00%    100.00% |           0      0.00%    100.00%
system.ruby.L2Cache_Controller.SS.L2_Replacement::total            5                      
system.ruby.L2Cache_Controller.SS.L2_Replacement_clean |        1683     12.71%     12.71% |        1682     12.70%     25.41% |        1625     12.27%     37.68% |        1590     12.01%     49.68% |        1644     12.41%     62.10% |        1635     12.35%     74.44% |        1680     12.68%     87.13% |        1705     12.87%    100.00%
system.ruby.L2Cache_Controller.SS.L2_Replacement_clean::total        13244                      
system.ruby.L2Cache_Controller.M.L1_GET_INSTR |           1      5.26%      5.26% |           3     15.79%     21.05% |           5     26.32%     47.37% |           1      5.26%     52.63% |           2     10.53%     63.16% |           4     21.05%     84.21% |           3     15.79%    100.00% |           0      0.00%    100.00%
system.ruby.L2Cache_Controller.M.L1_GET_INSTR::total           19                      
system.ruby.L2Cache_Controller.M.L1_GETS |      303321     13.76%     13.76% |      265926     12.07%     25.83% |      273080     12.39%     38.22% |      267770     12.15%     50.37% |      273195     12.40%     62.76% |      278729     12.65%     75.41% |      259947     11.79%     87.21% |      281974     12.79%    100.00%
system.ruby.L2Cache_Controller.M.L1_GETS::total      2203942                      
system.ruby.L2Cache_Controller.M.L1_GETX |       95768     12.98%     12.98% |       89439     12.12%     25.11% |       93780     12.71%     37.82% |       91003     12.34%     50.15% |       90663     12.29%     62.44% |       95145     12.90%     75.34% |       92228     12.50%     87.84% |       89671     12.16%    100.00%
system.ruby.L2Cache_Controller.M.L1_GETX::total       737697                      
system.ruby.L2Cache_Controller.M.L2_Replacement |       50346     12.52%     12.52% |       50403     12.54%     25.06% |       50268     12.50%     37.56% |       50451     12.55%     50.11% |       50140     12.47%     62.59% |       50212     12.49%     75.08% |       50027     12.44%     87.52% |       50175     12.48%    100.00%
system.ruby.L2Cache_Controller.M.L2_Replacement::total       402022                      
system.ruby.L2Cache_Controller.M.L2_Replacement_clean |        5340     12.81%     12.81% |        5284     12.67%     25.48% |        5265     12.63%     38.11% |        5195     12.46%     50.57% |        5205     12.49%     63.06% |        5132     12.31%     75.37% |        5141     12.33%     87.70% |        5127     12.30%    100.00%
system.ruby.L2Cache_Controller.M.L2_Replacement_clean::total        41689                      
system.ruby.L2Cache_Controller.M.MEM_Inv |         172     12.96%     12.96% |         171     12.89%     25.85% |         164     12.36%     38.21% |         164     12.36%     50.57% |         164     12.36%     62.92% |         163     12.28%     75.21% |         163     12.28%     87.49% |         166     12.51%    100.00%
system.ruby.L2Cache_Controller.M.MEM_Inv::total         1327                      
system.ruby.L2Cache_Controller.MT.L1_PUTX |      456928     13.43%     13.43% |      413074     12.14%     25.57% |      424546     12.48%     38.05% |      416386     12.24%     50.28% |      421374     12.38%     62.67% |      431303     12.68%     75.34% |      409711     12.04%     87.39% |      429176     12.61%    100.00%
system.ruby.L2Cache_Controller.MT.L1_PUTX::total      3402498                      
system.ruby.L2Cache_Controller.MT.MEM_Inv |         182     93.81%     93.81% |           2      1.03%     94.85% |           1      0.52%     95.36% |           1      0.52%     95.88% |           1      0.52%     96.39% |           2      1.03%     97.42% |           3      1.55%     98.97% |           2      1.03%    100.00%
system.ruby.L2Cache_Controller.MT.MEM_Inv::total          194                      
system.ruby.L2Cache_Controller.M_I.Mem_Ack |       57723     12.59%     12.59% |       57543     12.55%     25.14% |       57323     12.50%     37.64% |       57403     12.52%     50.16% |       57154     12.47%     62.63% |       57145     12.46%     75.09% |       57015     12.44%     87.53% |       57175     12.47%    100.00%
system.ruby.L2Cache_Controller.M_I.Mem_Ack::total       458481                      
system.ruby.L2Cache_Controller.M_I.MEM_Inv |         172     12.96%     12.96% |         171     12.89%     25.85% |         164     12.36%     38.21% |         164     12.36%     50.57% |         164     12.36%     62.92% |         163     12.28%     75.21% |         163     12.28%     87.49% |         166     12.51%    100.00%
system.ruby.L2Cache_Controller.M_I.MEM_Inv::total         1327                      
system.ruby.L2Cache_Controller.MT_I.WB_Data |         181    100.00%    100.00% |           0      0.00%    100.00% |           0      0.00%    100.00% |           0      0.00%    100.00% |           0      0.00%    100.00% |           0      0.00%    100.00% |           0      0.00%    100.00% |           0      0.00%    100.00%
system.ruby.L2Cache_Controller.MT_I.WB_Data::total          181                      
system.ruby.L2Cache_Controller.MT_I.Ack_all |           1      7.69%      7.69% |           2     15.38%     23.08% |           1      7.69%     30.77% |           1      7.69%     38.46% |           1      7.69%     46.15% |           2     15.38%     61.54% |           3     23.08%     84.62% |           2     15.38%    100.00%
system.ruby.L2Cache_Controller.MT_I.Ack_all::total           13                      
system.ruby.L2Cache_Controller.MT_I.MEM_Inv |         182     93.81%     93.81% |           2      1.03%     94.85% |           1      0.52%     95.36% |           1      0.52%     95.88% |           1      0.52%     96.39% |           2      1.03%     97.42% |           3      1.55%     98.97% |           2      1.03%    100.00%
system.ruby.L2Cache_Controller.MT_I.MEM_Inv::total          194                      
system.ruby.L2Cache_Controller.I_I.Ack_all |        1683     12.71%     12.71% |        1682     12.70%     25.41% |        1625     12.27%     37.68% |        1590     12.01%     49.68% |        1644     12.41%     62.10% |        1635     12.35%     74.44% |        1680     12.68%     87.13% |        1705     12.87%    100.00%
system.ruby.L2Cache_Controller.I_I.Ack_all::total        13244                      
system.ruby.L2Cache_Controller.S_I.Ack_all |           0      0.00%      0.00% |           1     20.00%     20.00% |           0      0.00%     20.00% |           2     40.00%     60.00% |           0      0.00%     60.00% |           1     20.00%     80.00% |           1     20.00%    100.00% |           0      0.00%    100.00%
system.ruby.L2Cache_Controller.S_I.Ack_all::total            5                      
system.ruby.L2Cache_Controller.ISS.Mem_Data |       15765     12.85%     12.85% |       15295     12.46%     25.31% |       15397     12.55%     37.86% |       15390     12.54%     50.40% |       15191     12.38%     62.78% |       15232     12.41%     75.19% |       15331     12.49%     87.68% |       15116     12.32%    100.00%
system.ruby.L2Cache_Controller.ISS.Mem_Data::total       122717                      
system.ruby.L2Cache_Controller.IS.Mem_Data |        1005     12.55%     12.55% |         988     12.34%     24.89% |         995     12.43%     37.32% |         978     12.21%     49.53% |         990     12.36%     61.90% |         993     12.40%     74.30% |        1022     12.76%     87.06% |        1036     12.94%    100.00%
system.ruby.L2Cache_Controller.IS.Mem_Data::total         8007                      
system.ruby.L2Cache_Controller.IM.Mem_Data |       42256     12.49%     12.49% |       42415     12.54%     25.03% |       42290     12.50%     37.53% |       42225     12.48%     50.01% |       42326     12.51%     62.52% |       42199     12.47%     74.99% |       42208     12.48%     87.46% |       42417     12.54%    100.00%
system.ruby.L2Cache_Controller.IM.Mem_Data::total       338336                      
system.ruby.L2Cache_Controller.MT_MB.Exclusive_Unblock |      457110     13.43%     13.43% |      413075     12.14%     25.57% |      424547     12.48%     38.05% |      416388     12.24%     50.29% |      421375     12.38%     62.67% |      431305     12.68%     75.35% |      409714     12.04%     87.39% |      429178     12.61%    100.00%
system.ruby.L2Cache_Controller.MT_MB.Exclusive_Unblock::total      3402692                      

---------- End Simulation Statistics   ----------
