
---------- Begin Simulation Statistics ----------
sim_seconds                                  0.334198                       # Number of seconds simulated
sim_ticks                                334198398000                       # Number of ticks simulated
final_tick                               5556342854000                       # Number of ticks from beginning of simulation (restored from checkpoints and never reset)
sim_freq                                 1000000000000                       # Frequency of simulated ticks
host_inst_rate                                 746718                       # Simulator instruction rate (inst/s)
host_op_rate                                  1366323                       # Simulator op (including micro ops) rate (op/s)
host_tick_rate                              831839417                       # Simulator tick rate (ticks/s)
host_mem_usage                                1787240                       # Number of bytes of host memory used
host_seconds                                   401.76                       # Real time elapsed on the host
sim_insts                                   300000001                       # Number of instructions simulated
sim_ops                                     548931553                       # Number of ops (including micro ops) simulated
system.voltage_domain.voltage                       1                       # Voltage in Volts
system.clk_domain.clock                          1000                       # Clock period in ticks
system.mem_ctrls0.pwrStateResidencyTicks::UNDEFINED 5556342854000                       # Cumulative time (in ticks) in various power states
system.mem_ctrls0.bytes_read::ruby.dir_cntrl0      2078848                       # Number of bytes read from this memory
system.mem_ctrls0.bytes_read::total           2078848                       # Number of bytes read from this memory
system.mem_ctrls0.bytes_written::ruby.dir_cntrl0      2407424                       # Number of bytes written to this memory
system.mem_ctrls0.bytes_written::total        2407424                       # Number of bytes written to this memory
system.mem_ctrls0.num_reads::ruby.dir_cntrl0        32482                       # Number of read requests responded to by this memory
system.mem_ctrls0.num_reads::total              32482                       # Number of read requests responded to by this memory
system.mem_ctrls0.num_writes::ruby.dir_cntrl0        37616                       # Number of write requests responded to by this memory
system.mem_ctrls0.num_writes::total             37616                       # Number of write requests responded to by this memory
system.mem_ctrls0.bw_read::ruby.dir_cntrl0      6220401                       # Total read bandwidth from this memory (bytes/s)
system.mem_ctrls0.bw_read::total              6220401                       # Total read bandwidth from this memory (bytes/s)
system.mem_ctrls0.bw_write::ruby.dir_cntrl0      7203577                       # Write bandwidth from this memory (bytes/s)
system.mem_ctrls0.bw_write::total             7203577                       # Write bandwidth from this memory (bytes/s)
system.mem_ctrls0.bw_total::ruby.dir_cntrl0     13423978                       # Total bandwidth to/from this memory (bytes/s)
system.mem_ctrls0.bw_total::total            13423978                       # Total bandwidth to/from this memory (bytes/s)
system.mem_ctrls0.readReqs                      32482                       # Number of read requests accepted
system.mem_ctrls0.writeReqs                     37616                       # Number of write requests accepted
system.mem_ctrls0.readBursts                    32482                       # Number of DRAM read bursts, including those serviced by the write queue
system.mem_ctrls0.writeBursts                   37616                       # Number of DRAM write bursts, including those merged in the write queue
system.mem_ctrls0.bytesReadDRAM               2055168                       # Total number of bytes read from DRAM
system.mem_ctrls0.bytesReadWrQ                  23680                       # Total number of bytes read from write queue
system.mem_ctrls0.bytesWritten                2400448                       # Total number of bytes written to DRAM
system.mem_ctrls0.bytesReadSys                2078848                       # Total read bytes from the system interface side
system.mem_ctrls0.bytesWrittenSys             2407424                       # Total written bytes from the system interface side
system.mem_ctrls0.servicedByWrQ                   370                       # Number of DRAM read bursts serviced by the write queue
system.mem_ctrls0.mergedWrBursts                  107                       # Number of DRAM write bursts merged with an existing one
system.mem_ctrls0.neitherReadNorWriteReqs            0                       # Number of requests that are neither read nor write
system.mem_ctrls0.perBankRdBursts::0             2017                       # Per bank write bursts
system.mem_ctrls0.perBankRdBursts::1             2206                       # Per bank write bursts
system.mem_ctrls0.perBankRdBursts::2             2041                       # Per bank write bursts
system.mem_ctrls0.perBankRdBursts::3             2042                       # Per bank write bursts
system.mem_ctrls0.perBankRdBursts::4             1934                       # Per bank write bursts
system.mem_ctrls0.perBankRdBursts::5             1949                       # Per bank write bursts
system.mem_ctrls0.perBankRdBursts::6             1961                       # Per bank write bursts
system.mem_ctrls0.perBankRdBursts::7             2003                       # Per bank write bursts
system.mem_ctrls0.perBankRdBursts::8             1994                       # Per bank write bursts
system.mem_ctrls0.perBankRdBursts::9             2073                       # Per bank write bursts
system.mem_ctrls0.perBankRdBursts::10            2030                       # Per bank write bursts
system.mem_ctrls0.perBankRdBursts::11            1966                       # Per bank write bursts
system.mem_ctrls0.perBankRdBursts::12            1869                       # Per bank write bursts
system.mem_ctrls0.perBankRdBursts::13            1841                       # Per bank write bursts
system.mem_ctrls0.perBankRdBursts::14            2084                       # Per bank write bursts
system.mem_ctrls0.perBankRdBursts::15            2102                       # Per bank write bursts
system.mem_ctrls0.perBankWrBursts::0             2357                       # Per bank write bursts
system.mem_ctrls0.perBankWrBursts::1             2268                       # Per bank write bursts
system.mem_ctrls0.perBankWrBursts::2             2302                       # Per bank write bursts
system.mem_ctrls0.perBankWrBursts::3             2259                       # Per bank write bursts
system.mem_ctrls0.perBankWrBursts::4             2222                       # Per bank write bursts
system.mem_ctrls0.perBankWrBursts::5             2232                       # Per bank write bursts
system.mem_ctrls0.perBankWrBursts::6             2183                       # Per bank write bursts
system.mem_ctrls0.perBankWrBursts::7             2220                       # Per bank write bursts
system.mem_ctrls0.perBankWrBursts::8             2423                       # Per bank write bursts
system.mem_ctrls0.perBankWrBursts::9             2561                       # Per bank write bursts
system.mem_ctrls0.perBankWrBursts::10            2630                       # Per bank write bursts
system.mem_ctrls0.perBankWrBursts::11            2544                       # Per bank write bursts
system.mem_ctrls0.perBankWrBursts::12            2401                       # Per bank write bursts
system.mem_ctrls0.perBankWrBursts::13            2355                       # Per bank write bursts
system.mem_ctrls0.perBankWrBursts::14            2343                       # Per bank write bursts
system.mem_ctrls0.perBankWrBursts::15            2207                       # Per bank write bursts
system.mem_ctrls0.numRdRetry                        0                       # Number of times read queue was full causing retry
system.mem_ctrls0.numWrRetry                       46                       # Number of times write queue was full causing retry
system.mem_ctrls0.totGap                 334643125000                       # Total gap between requests
system.mem_ctrls0.readPktSize::0                    0                       # Read request sizes (log2)
system.mem_ctrls0.readPktSize::1                    0                       # Read request sizes (log2)
system.mem_ctrls0.readPktSize::2                    0                       # Read request sizes (log2)
system.mem_ctrls0.readPktSize::3                    0                       # Read request sizes (log2)
system.mem_ctrls0.readPktSize::4                    0                       # Read request sizes (log2)
system.mem_ctrls0.readPktSize::5                    0                       # Read request sizes (log2)
system.mem_ctrls0.readPktSize::6                32482                       # Read request sizes (log2)
system.mem_ctrls0.writePktSize::0                   0                       # Write request sizes (log2)
system.mem_ctrls0.writePktSize::1                   0                       # Write request sizes (log2)
system.mem_ctrls0.writePktSize::2                   0                       # Write request sizes (log2)
system.mem_ctrls0.writePktSize::3                   0                       # Write request sizes (log2)
system.mem_ctrls0.writePktSize::4                   0                       # Write request sizes (log2)
system.mem_ctrls0.writePktSize::5                   0                       # Write request sizes (log2)
system.mem_ctrls0.writePktSize::6               37616                       # Write request sizes (log2)
system.mem_ctrls0.rdQLenPdf::0                  32108                       # What read queue length does an incoming req see
system.mem_ctrls0.rdQLenPdf::1                      4                       # What read queue length does an incoming req see
system.mem_ctrls0.rdQLenPdf::2                      0                       # What read queue length does an incoming req see
system.mem_ctrls0.rdQLenPdf::3                      0                       # What read queue length does an incoming req see
system.mem_ctrls0.rdQLenPdf::4                      0                       # What read queue length does an incoming req see
system.mem_ctrls0.rdQLenPdf::5                      0                       # What read queue length does an incoming req see
system.mem_ctrls0.rdQLenPdf::6                      0                       # What read queue length does an incoming req see
system.mem_ctrls0.rdQLenPdf::7                      0                       # What read queue length does an incoming req see
system.mem_ctrls0.rdQLenPdf::8                      0                       # What read queue length does an incoming req see
system.mem_ctrls0.rdQLenPdf::9                      0                       # What read queue length does an incoming req see
system.mem_ctrls0.rdQLenPdf::10                     0                       # What read queue length does an incoming req see
system.mem_ctrls0.rdQLenPdf::11                     0                       # What read queue length does an incoming req see
system.mem_ctrls0.rdQLenPdf::12                     0                       # What read queue length does an incoming req see
system.mem_ctrls0.rdQLenPdf::13                     0                       # What read queue length does an incoming req see
system.mem_ctrls0.rdQLenPdf::14                     0                       # What read queue length does an incoming req see
system.mem_ctrls0.rdQLenPdf::15                     0                       # What read queue length does an incoming req see
system.mem_ctrls0.rdQLenPdf::16                     0                       # What read queue length does an incoming req see
system.mem_ctrls0.rdQLenPdf::17                     0                       # What read queue length does an incoming req see
system.mem_ctrls0.rdQLenPdf::18                     0                       # What read queue length does an incoming req see
system.mem_ctrls0.rdQLenPdf::19                     0                       # What read queue length does an incoming req see
system.mem_ctrls0.rdQLenPdf::20                     0                       # What read queue length does an incoming req see
system.mem_ctrls0.rdQLenPdf::21                     0                       # What read queue length does an incoming req see
system.mem_ctrls0.rdQLenPdf::22                     0                       # What read queue length does an incoming req see
system.mem_ctrls0.rdQLenPdf::23                     0                       # What read queue length does an incoming req see
system.mem_ctrls0.rdQLenPdf::24                     0                       # What read queue length does an incoming req see
system.mem_ctrls0.rdQLenPdf::25                     0                       # What read queue length does an incoming req see
system.mem_ctrls0.rdQLenPdf::26                     0                       # What read queue length does an incoming req see
system.mem_ctrls0.rdQLenPdf::27                     0                       # What read queue length does an incoming req see
system.mem_ctrls0.rdQLenPdf::28                     0                       # What read queue length does an incoming req see
system.mem_ctrls0.rdQLenPdf::29                     0                       # What read queue length does an incoming req see
system.mem_ctrls0.rdQLenPdf::30                     0                       # What read queue length does an incoming req see
system.mem_ctrls0.rdQLenPdf::31                     0                       # What read queue length does an incoming req see
system.mem_ctrls0.wrQLenPdf::0                      0                       # What write queue length does an incoming req see
system.mem_ctrls0.wrQLenPdf::1                      0                       # What write queue length does an incoming req see
system.mem_ctrls0.wrQLenPdf::2                      0                       # What write queue length does an incoming req see
system.mem_ctrls0.wrQLenPdf::3                      0                       # What write queue length does an incoming req see
system.mem_ctrls0.wrQLenPdf::4                      0                       # What write queue length does an incoming req see
system.mem_ctrls0.wrQLenPdf::5                      0                       # What write queue length does an incoming req see
system.mem_ctrls0.wrQLenPdf::6                      0                       # What write queue length does an incoming req see
system.mem_ctrls0.wrQLenPdf::7                      0                       # What write queue length does an incoming req see
system.mem_ctrls0.wrQLenPdf::8                      0                       # What write queue length does an incoming req see
system.mem_ctrls0.wrQLenPdf::9                      0                       # What write queue length does an incoming req see
system.mem_ctrls0.wrQLenPdf::10                     0                       # What write queue length does an incoming req see
system.mem_ctrls0.wrQLenPdf::11                     0                       # What write queue length does an incoming req see
system.mem_ctrls0.wrQLenPdf::12                     0                       # What write queue length does an incoming req see
system.mem_ctrls0.wrQLenPdf::13                     0                       # What write queue length does an incoming req see
system.mem_ctrls0.wrQLenPdf::14                     0                       # What write queue length does an incoming req see
system.mem_ctrls0.wrQLenPdf::15                   230                       # What write queue length does an incoming req see
system.mem_ctrls0.wrQLenPdf::16                   364                       # What write queue length does an incoming req see
system.mem_ctrls0.wrQLenPdf::17                  2074                       # What write queue length does an incoming req see
system.mem_ctrls0.wrQLenPdf::18                  2151                       # What write queue length does an incoming req see
system.mem_ctrls0.wrQLenPdf::19                  2192                       # What write queue length does an incoming req see
system.mem_ctrls0.wrQLenPdf::20                  2171                       # What write queue length does an incoming req see
system.mem_ctrls0.wrQLenPdf::21                  2180                       # What write queue length does an incoming req see
system.mem_ctrls0.wrQLenPdf::22                  2213                       # What write queue length does an incoming req see
system.mem_ctrls0.wrQLenPdf::23                  2208                       # What write queue length does an incoming req see
system.mem_ctrls0.wrQLenPdf::24                  2271                       # What write queue length does an incoming req see
system.mem_ctrls0.wrQLenPdf::25                  2330                       # What write queue length does an incoming req see
system.mem_ctrls0.wrQLenPdf::26                  2183                       # What write queue length does an incoming req see
system.mem_ctrls0.wrQLenPdf::27                  2164                       # What write queue length does an incoming req see
system.mem_ctrls0.wrQLenPdf::28                  2146                       # What write queue length does an incoming req see
system.mem_ctrls0.wrQLenPdf::29                  2095                       # What write queue length does an incoming req see
system.mem_ctrls0.wrQLenPdf::30                  2060                       # What write queue length does an incoming req see
system.mem_ctrls0.wrQLenPdf::31                  2044                       # What write queue length does an incoming req see
system.mem_ctrls0.wrQLenPdf::32                  2055                       # What write queue length does an incoming req see
system.mem_ctrls0.wrQLenPdf::33                   118                       # What write queue length does an incoming req see
system.mem_ctrls0.wrQLenPdf::34                   107                       # What write queue length does an incoming req see
system.mem_ctrls0.wrQLenPdf::35                   104                       # What write queue length does an incoming req see
system.mem_ctrls0.wrQLenPdf::36                    94                       # What write queue length does an incoming req see
system.mem_ctrls0.wrQLenPdf::37                    94                       # What write queue length does an incoming req see
system.mem_ctrls0.wrQLenPdf::38                    89                       # What write queue length does an incoming req see
system.mem_ctrls0.wrQLenPdf::39                    89                       # What write queue length does an incoming req see
system.mem_ctrls0.wrQLenPdf::40                    85                       # What write queue length does an incoming req see
system.mem_ctrls0.wrQLenPdf::41                    70                       # What write queue length does an incoming req see
system.mem_ctrls0.wrQLenPdf::42                    77                       # What write queue length does an incoming req see
system.mem_ctrls0.wrQLenPdf::43                    85                       # What write queue length does an incoming req see
system.mem_ctrls0.wrQLenPdf::44                    83                       # What write queue length does an incoming req see
system.mem_ctrls0.wrQLenPdf::45                    84                       # What write queue length does an incoming req see
system.mem_ctrls0.wrQLenPdf::46                    83                       # What write queue length does an incoming req see
system.mem_ctrls0.wrQLenPdf::47                    74                       # What write queue length does an incoming req see
system.mem_ctrls0.wrQLenPdf::48                    75                       # What write queue length does an incoming req see
system.mem_ctrls0.wrQLenPdf::49                    88                       # What write queue length does an incoming req see
system.mem_ctrls0.wrQLenPdf::50                    82                       # What write queue length does an incoming req see
system.mem_ctrls0.wrQLenPdf::51                    78                       # What write queue length does an incoming req see
system.mem_ctrls0.wrQLenPdf::52                    69                       # What write queue length does an incoming req see
system.mem_ctrls0.wrQLenPdf::53                    71                       # What write queue length does an incoming req see
system.mem_ctrls0.wrQLenPdf::54                    74                       # What write queue length does an incoming req see
system.mem_ctrls0.wrQLenPdf::55                    65                       # What write queue length does an incoming req see
system.mem_ctrls0.wrQLenPdf::56                    71                       # What write queue length does an incoming req see
system.mem_ctrls0.wrQLenPdf::57                    62                       # What write queue length does an incoming req see
system.mem_ctrls0.wrQLenPdf::58                    61                       # What write queue length does an incoming req see
system.mem_ctrls0.wrQLenPdf::59                    56                       # What write queue length does an incoming req see
system.mem_ctrls0.wrQLenPdf::60                    42                       # What write queue length does an incoming req see
system.mem_ctrls0.wrQLenPdf::61                    33                       # What write queue length does an incoming req see
system.mem_ctrls0.wrQLenPdf::62                    38                       # What write queue length does an incoming req see
system.mem_ctrls0.wrQLenPdf::63                    77                       # What write queue length does an incoming req see
system.mem_ctrls0.bytesPerActivate::samples        17444                       # Bytes accessed per row activation
system.mem_ctrls0.bytesPerActivate::mean   255.423985                       # Bytes accessed per row activation
system.mem_ctrls0.bytesPerActivate::gmean   181.620972                       # Bytes accessed per row activation
system.mem_ctrls0.bytesPerActivate::stdev   220.329578                       # Bytes accessed per row activation
system.mem_ctrls0.bytesPerActivate::0-127         5139     29.46%     29.46% # Bytes accessed per row activation
system.mem_ctrls0.bytesPerActivate::128-255         4626     26.52%     55.98% # Bytes accessed per row activation
system.mem_ctrls0.bytesPerActivate::256-383         3103     17.79%     73.77% # Bytes accessed per row activation
system.mem_ctrls0.bytesPerActivate::384-511         2292     13.14%     86.91% # Bytes accessed per row activation
system.mem_ctrls0.bytesPerActivate::512-639         1278      7.33%     94.23% # Bytes accessed per row activation
system.mem_ctrls0.bytesPerActivate::640-767          236      1.35%     95.59% # Bytes accessed per row activation
system.mem_ctrls0.bytesPerActivate::768-895          119      0.68%     96.27% # Bytes accessed per row activation
system.mem_ctrls0.bytesPerActivate::896-1023          103      0.59%     96.86% # Bytes accessed per row activation
system.mem_ctrls0.bytesPerActivate::1024-1151          548      3.14%    100.00% # Bytes accessed per row activation
system.mem_ctrls0.bytesPerActivate::total        17444                       # Bytes accessed per row activation
system.mem_ctrls0.rdPerTurnAround::samples         1989                       # Reads before turning the bus around for writes
system.mem_ctrls0.rdPerTurnAround::mean     16.144294                       # Reads before turning the bus around for writes
system.mem_ctrls0.rdPerTurnAround::stdev     8.188351                       # Reads before turning the bus around for writes
system.mem_ctrls0.rdPerTurnAround::0-3            261     13.12%     13.12% # Reads before turning the bus around for writes
system.mem_ctrls0.rdPerTurnAround::4-7             31      1.56%     14.68% # Reads before turning the bus around for writes
system.mem_ctrls0.rdPerTurnAround::8-11            28      1.41%     16.09% # Reads before turning the bus around for writes
system.mem_ctrls0.rdPerTurnAround::12-15           24      1.21%     17.30% # Reads before turning the bus around for writes
system.mem_ctrls0.rdPerTurnAround::16-19         1257     63.20%     80.49% # Reads before turning the bus around for writes
system.mem_ctrls0.rdPerTurnAround::20-23          222     11.16%     91.65% # Reads before turning the bus around for writes
system.mem_ctrls0.rdPerTurnAround::24-27           81      4.07%     95.73% # Reads before turning the bus around for writes
system.mem_ctrls0.rdPerTurnAround::28-31           36      1.81%     97.54% # Reads before turning the bus around for writes
system.mem_ctrls0.rdPerTurnAround::32-35           20      1.01%     98.54% # Reads before turning the bus around for writes
system.mem_ctrls0.rdPerTurnAround::36-39           10      0.50%     99.04% # Reads before turning the bus around for writes
system.mem_ctrls0.rdPerTurnAround::40-43            5      0.25%     99.30% # Reads before turning the bus around for writes
system.mem_ctrls0.rdPerTurnAround::44-47            4      0.20%     99.50% # Reads before turning the bus around for writes
system.mem_ctrls0.rdPerTurnAround::48-51            2      0.10%     99.60% # Reads before turning the bus around for writes
system.mem_ctrls0.rdPerTurnAround::52-55            1      0.05%     99.65% # Reads before turning the bus around for writes
system.mem_ctrls0.rdPerTurnAround::56-59            2      0.10%     99.75% # Reads before turning the bus around for writes
system.mem_ctrls0.rdPerTurnAround::64-67            1      0.05%     99.80% # Reads before turning the bus around for writes
system.mem_ctrls0.rdPerTurnAround::72-75            2      0.10%     99.90% # Reads before turning the bus around for writes
system.mem_ctrls0.rdPerTurnAround::84-87            1      0.05%     99.95% # Reads before turning the bus around for writes
system.mem_ctrls0.rdPerTurnAround::112-115            1      0.05%    100.00% # Reads before turning the bus around for writes
system.mem_ctrls0.rdPerTurnAround::total         1989                       # Reads before turning the bus around for writes
system.mem_ctrls0.wrPerTurnAround::samples         1989                       # Writes before turning the bus around for reads
system.mem_ctrls0.wrPerTurnAround::mean     18.857215                       # Writes before turning the bus around for reads
system.mem_ctrls0.wrPerTurnAround::gmean    17.762828                       # Writes before turning the bus around for reads
system.mem_ctrls0.wrPerTurnAround::stdev     9.205551                       # Writes before turning the bus around for reads
system.mem_ctrls0.wrPerTurnAround::16-17         1711     86.02%     86.02% # Writes before turning the bus around for reads
system.mem_ctrls0.wrPerTurnAround::18-19           19      0.96%     86.98% # Writes before turning the bus around for reads
system.mem_ctrls0.wrPerTurnAround::20-21            9      0.45%     87.43% # Writes before turning the bus around for reads
system.mem_ctrls0.wrPerTurnAround::22-23           12      0.60%     88.03% # Writes before turning the bus around for reads
system.mem_ctrls0.wrPerTurnAround::24-25           18      0.90%     88.94% # Writes before turning the bus around for reads
system.mem_ctrls0.wrPerTurnAround::26-27           21      1.06%     89.99% # Writes before turning the bus around for reads
system.mem_ctrls0.wrPerTurnAround::28-29           41      2.06%     92.06% # Writes before turning the bus around for reads
system.mem_ctrls0.wrPerTurnAround::30-31           18      0.90%     92.96% # Writes before turning the bus around for reads
system.mem_ctrls0.wrPerTurnAround::32-33           20      1.01%     93.97% # Writes before turning the bus around for reads
system.mem_ctrls0.wrPerTurnAround::34-35            6      0.30%     94.27% # Writes before turning the bus around for reads
system.mem_ctrls0.wrPerTurnAround::36-37           15      0.75%     95.02% # Writes before turning the bus around for reads
system.mem_ctrls0.wrPerTurnAround::38-39            9      0.45%     95.48% # Writes before turning the bus around for reads
system.mem_ctrls0.wrPerTurnAround::40-41           16      0.80%     96.28% # Writes before turning the bus around for reads
system.mem_ctrls0.wrPerTurnAround::42-43            9      0.45%     96.73% # Writes before turning the bus around for reads
system.mem_ctrls0.wrPerTurnAround::44-45            5      0.25%     96.98% # Writes before turning the bus around for reads
system.mem_ctrls0.wrPerTurnAround::46-47            5      0.25%     97.23% # Writes before turning the bus around for reads
system.mem_ctrls0.wrPerTurnAround::48-49           17      0.85%     98.09% # Writes before turning the bus around for reads
system.mem_ctrls0.wrPerTurnAround::50-51            2      0.10%     98.19% # Writes before turning the bus around for reads
system.mem_ctrls0.wrPerTurnAround::52-53            6      0.30%     98.49% # Writes before turning the bus around for reads
system.mem_ctrls0.wrPerTurnAround::54-55            2      0.10%     98.59% # Writes before turning the bus around for reads
system.mem_ctrls0.wrPerTurnAround::56-57            4      0.20%     98.79% # Writes before turning the bus around for reads
system.mem_ctrls0.wrPerTurnAround::58-59            1      0.05%     98.84% # Writes before turning the bus around for reads
system.mem_ctrls0.wrPerTurnAround::60-61            1      0.05%     98.89% # Writes before turning the bus around for reads
system.mem_ctrls0.wrPerTurnAround::64-65            3      0.15%     99.04% # Writes before turning the bus around for reads
system.mem_ctrls0.wrPerTurnAround::66-67            1      0.05%     99.10% # Writes before turning the bus around for reads
system.mem_ctrls0.wrPerTurnAround::68-69            3      0.15%     99.25% # Writes before turning the bus around for reads
system.mem_ctrls0.wrPerTurnAround::70-71            1      0.05%     99.30% # Writes before turning the bus around for reads
system.mem_ctrls0.wrPerTurnAround::72-73            3      0.15%     99.45% # Writes before turning the bus around for reads
system.mem_ctrls0.wrPerTurnAround::74-75            2      0.10%     99.55% # Writes before turning the bus around for reads
system.mem_ctrls0.wrPerTurnAround::76-77            1      0.05%     99.60% # Writes before turning the bus around for reads
system.mem_ctrls0.wrPerTurnAround::80-81            1      0.05%     99.65% # Writes before turning the bus around for reads
system.mem_ctrls0.wrPerTurnAround::82-83            1      0.05%     99.70% # Writes before turning the bus around for reads
system.mem_ctrls0.wrPerTurnAround::84-85            1      0.05%     99.75% # Writes before turning the bus around for reads
system.mem_ctrls0.wrPerTurnAround::90-91            1      0.05%     99.80% # Writes before turning the bus around for reads
system.mem_ctrls0.wrPerTurnAround::94-95            2      0.10%     99.90% # Writes before turning the bus around for reads
system.mem_ctrls0.wrPerTurnAround::98-99            1      0.05%     99.95% # Writes before turning the bus around for reads
system.mem_ctrls0.wrPerTurnAround::104-105            1      0.05%    100.00% # Writes before turning the bus around for reads
system.mem_ctrls0.wrPerTurnAround::total         1989                       # Writes before turning the bus around for reads
system.mem_ctrls0.totQLat                  1699279749                       # Total ticks spent queuing
system.mem_ctrls0.totMemAccLat             2301379749                       # Total ticks spent from burst creation until serviced by the DRAM
system.mem_ctrls0.totBusLat                 160560000                       # Total ticks spent in databus transfers
system.mem_ctrls0.avgQLat                    52917.28                       # Average queueing delay per DRAM burst
system.mem_ctrls0.avgBusLat                   5000.00                       # Average bus latency per DRAM burst
system.mem_ctrls0.avgMemAccLat               71667.28                       # Average memory access latency per DRAM burst
system.mem_ctrls0.avgRdBW                        6.15                       # Average DRAM read bandwidth in MiByte/s
system.mem_ctrls0.avgWrBW                        7.18                       # Average achieved write bandwidth in MiByte/s
system.mem_ctrls0.avgRdBWSys                     6.22                       # Average system read bandwidth in MiByte/s
system.mem_ctrls0.avgWrBWSys                     7.20                       # Average system write bandwidth in MiByte/s
system.mem_ctrls0.peakBW                     12800.00                       # Theoretical peak bandwidth in MiByte/s
system.mem_ctrls0.busUtil                        0.10                       # Data bus utilization in percentage
system.mem_ctrls0.busUtilRead                    0.05                       # Data bus utilization in percentage for reads
system.mem_ctrls0.busUtilWrite                   0.06                       # Data bus utilization in percentage for writes
system.mem_ctrls0.avgRdQLen                      1.00                       # Average read queue length when enqueuing
system.mem_ctrls0.avgWrQLen                     25.44                       # Average write queue length when enqueuing
system.mem_ctrls0.readRowHits                   23677                       # Number of row buffer hits during reads
system.mem_ctrls0.writeRowHits                  28498                       # Number of row buffer hits during writes
system.mem_ctrls0.readRowHitRate                73.73                       # Row buffer hit rate for reads
system.mem_ctrls0.writeRowHitRate               75.98                       # Row buffer hit rate for writes
system.mem_ctrls0.avgGap                   4773932.57                       # Average gap between requests
system.mem_ctrls0.pageHitRate                   74.94                       # Row buffer hit rate, read and write combined
system.mem_ctrls0_0.actEnergy               103130160                       # Energy for activate commands per rank (pJ)
system.mem_ctrls0_0.preEnergy                54814980                       # Energy for precharge commands per rank (pJ)
system.mem_ctrls0_0.readEnergy              236469660                       # Energy for read commands per rank (pJ)
system.mem_ctrls0_0.writeEnergy             117925020                       # Energy for write commands per rank (pJ)
system.mem_ctrls0_0.refreshEnergy        8745712560.000002                       # Energy for refresh commands per rank (pJ)
system.mem_ctrls0_0.actBackEnergy          2879226750                       # Energy for active background per rank (pJ)
system.mem_ctrls0_0.preBackEnergy           517416480                       # Energy for precharge background per rank (pJ)
system.mem_ctrls0_0.actPowerDownEnergy    21168155550                       # Energy for active power-down per rank (pJ)
system.mem_ctrls0_0.prePowerDownEnergy    12561122880                       # Energy for precharge power-down per rank (pJ)
system.mem_ctrls0_0.selfRefreshEnergy    1314520066035                       # Energy for self refresh per rank (pJ)
system.mem_ctrls0_0.totalEnergy          1360906528215                       # Total energy per rank (pJ)
system.mem_ctrls0_0.averagePower           244.928465                       # Core power per rank (mW)
system.mem_ctrls0_0.totalIdleTime        330474868500                       # Total Idle time Per DRAM Rank
system.mem_ctrls0_0.memoryStateTime::IDLE    501723750                       # Time in different power states
system.mem_ctrls0_0.memoryStateTime::REF   1754080000                       # Time in different power states
system.mem_ctrls0_0.memoryStateTime::SREF 294207311750                       # Time in different power states
system.mem_ctrls0_0.memoryStateTime::PRE_PDN  15532355000                       # Time in different power states
system.mem_ctrls0_0.memoryStateTime::ACT   1901920000                       # Time in different power states
system.mem_ctrls0_0.memoryStateTime::ACT_PDN  21209017500                       # Time in different power states
system.mem_ctrls0_1.actEnergy                93241260                       # Energy for activate commands per rank (pJ)
system.mem_ctrls0_1.preEnergy                49558905                       # Energy for precharge commands per rank (pJ)
system.mem_ctrls0_1.readEnergy              233535120                       # Energy for read commands per rank (pJ)
system.mem_ctrls0_1.writeEnergy             119720700                       # Energy for write commands per rank (pJ)
system.mem_ctrls0_1.refreshEnergy        7840347840.000002                       # Energy for refresh commands per rank (pJ)
system.mem_ctrls0_1.actBackEnergy          2746192170                       # Energy for active background per rank (pJ)
system.mem_ctrls0_1.preBackEnergy           456313440                       # Energy for precharge background per rank (pJ)
system.mem_ctrls0_1.actPowerDownEnergy    19648566900                       # Energy for active power-down per rank (pJ)
system.mem_ctrls0_1.prePowerDownEnergy    10882452480                       # Energy for precharge power-down per rank (pJ)
system.mem_ctrls0_1.selfRefreshEnergy    1316224705830                       # Energy for self refresh per rank (pJ)
system.mem_ctrls0_1.totalEnergy          1358296700985                       # Total energy per rank (pJ)
system.mem_ctrls0_1.averagePower           244.458763                       # Core power per rank (mW)
system.mem_ctrls0_1.totalIdleTime        332952625750                       # Total Idle time Per DRAM Rank
system.mem_ctrls0_1.memoryStateTime::IDLE    450068250                       # Time in different power states
system.mem_ctrls0_1.memoryStateTime::REF   1657524000                       # Time in different power states
system.mem_ctrls0_1.memoryStateTime::SREF 298452108500                       # Time in different power states
system.mem_ctrls0_1.memoryStateTime::PRE_PDN  14461732750                       # Time in different power states
system.mem_ctrls0_1.memoryStateTime::ACT   2005485250                       # Time in different power states
system.mem_ctrls0_1.memoryStateTime::ACT_PDN  20502982000                       # Time in different power states
system.mem_ctrls1.pwrStateResidencyTicks::UNDEFINED 5556342854000                       # Cumulative time (in ticks) in various power states
system.mem_ctrls1.bytes_read::ruby.dir_cntrl1      2059264                       # Number of bytes read from this memory
system.mem_ctrls1.bytes_read::total           2059264                       # Number of bytes read from this memory
system.mem_ctrls1.bytes_written::ruby.dir_cntrl1      2411264                       # Number of bytes written to this memory
system.mem_ctrls1.bytes_written::total        2411264                       # Number of bytes written to this memory
system.mem_ctrls1.num_reads::ruby.dir_cntrl1        32176                       # Number of read requests responded to by this memory
system.mem_ctrls1.num_reads::total              32176                       # Number of read requests responded to by this memory
system.mem_ctrls1.num_writes::ruby.dir_cntrl1        37676                       # Number of write requests responded to by this memory
system.mem_ctrls1.num_writes::total             37676                       # Number of write requests responded to by this memory
system.mem_ctrls1.bw_read::ruby.dir_cntrl1      6161801                       # Total read bandwidth from this memory (bytes/s)
system.mem_ctrls1.bw_read::total              6161801                       # Total read bandwidth from this memory (bytes/s)
system.mem_ctrls1.bw_write::ruby.dir_cntrl1      7215068                       # Write bandwidth from this memory (bytes/s)
system.mem_ctrls1.bw_write::total             7215068                       # Write bandwidth from this memory (bytes/s)
system.mem_ctrls1.bw_total::ruby.dir_cntrl1     13376868                       # Total bandwidth to/from this memory (bytes/s)
system.mem_ctrls1.bw_total::total            13376868                       # Total bandwidth to/from this memory (bytes/s)
system.mem_ctrls1.readReqs                      32176                       # Number of read requests accepted
system.mem_ctrls1.writeReqs                     37676                       # Number of write requests accepted
system.mem_ctrls1.readBursts                    32176                       # Number of DRAM read bursts, including those serviced by the write queue
system.mem_ctrls1.writeBursts                   37676                       # Number of DRAM write bursts, including those merged in the write queue
system.mem_ctrls1.bytesReadDRAM               2043968                       # Total number of bytes read from DRAM
system.mem_ctrls1.bytesReadWrQ                  15296                       # Total number of bytes read from write queue
system.mem_ctrls1.bytesWritten                2410496                       # Total number of bytes written to DRAM
system.mem_ctrls1.bytesReadSys                2059264                       # Total read bytes from the system interface side
system.mem_ctrls1.bytesWrittenSys             2411264                       # Total written bytes from the system interface side
system.mem_ctrls1.servicedByWrQ                   239                       # Number of DRAM read bursts serviced by the write queue
system.mem_ctrls1.mergedWrBursts                    0                       # Number of DRAM write bursts merged with an existing one
system.mem_ctrls1.neitherReadNorWriteReqs            0                       # Number of requests that are neither read nor write
system.mem_ctrls1.perBankRdBursts::0             2019                       # Per bank write bursts
system.mem_ctrls1.perBankRdBursts::1             1997                       # Per bank write bursts
system.mem_ctrls1.perBankRdBursts::2             2038                       # Per bank write bursts
system.mem_ctrls1.perBankRdBursts::3             2038                       # Per bank write bursts
system.mem_ctrls1.perBankRdBursts::4             1933                       # Per bank write bursts
system.mem_ctrls1.perBankRdBursts::5             1949                       # Per bank write bursts
system.mem_ctrls1.perBankRdBursts::6             1953                       # Per bank write bursts
system.mem_ctrls1.perBankRdBursts::7             2006                       # Per bank write bursts
system.mem_ctrls1.perBankRdBursts::8             1992                       # Per bank write bursts
system.mem_ctrls1.perBankRdBursts::9             2062                       # Per bank write bursts
system.mem_ctrls1.perBankRdBursts::10            2047                       # Per bank write bursts
system.mem_ctrls1.perBankRdBursts::11            1970                       # Per bank write bursts
system.mem_ctrls1.perBankRdBursts::12            1869                       # Per bank write bursts
system.mem_ctrls1.perBankRdBursts::13            1859                       # Per bank write bursts
system.mem_ctrls1.perBankRdBursts::14            2092                       # Per bank write bursts
system.mem_ctrls1.perBankRdBursts::15            2113                       # Per bank write bursts
system.mem_ctrls1.perBankWrBursts::0             2367                       # Per bank write bursts
system.mem_ctrls1.perBankWrBursts::1             2166                       # Per bank write bursts
system.mem_ctrls1.perBankWrBursts::2             2306                       # Per bank write bursts
system.mem_ctrls1.perBankWrBursts::3             2301                       # Per bank write bursts
system.mem_ctrls1.perBankWrBursts::4             2219                       # Per bank write bursts
system.mem_ctrls1.perBankWrBursts::5             2270                       # Per bank write bursts
system.mem_ctrls1.perBankWrBursts::6             2229                       # Per bank write bursts
system.mem_ctrls1.perBankWrBursts::7             2218                       # Per bank write bursts
system.mem_ctrls1.perBankWrBursts::8             2442                       # Per bank write bursts
system.mem_ctrls1.perBankWrBursts::9             2563                       # Per bank write bursts
system.mem_ctrls1.perBankWrBursts::10            2716                       # Per bank write bursts
system.mem_ctrls1.perBankWrBursts::11            2557                       # Per bank write bursts
system.mem_ctrls1.perBankWrBursts::12            2398                       # Per bank write bursts
system.mem_ctrls1.perBankWrBursts::13            2370                       # Per bank write bursts
system.mem_ctrls1.perBankWrBursts::14            2350                       # Per bank write bursts
system.mem_ctrls1.perBankWrBursts::15            2192                       # Per bank write bursts
system.mem_ctrls1.numRdRetry                        0                       # Number of times read queue was full causing retry
system.mem_ctrls1.numWrRetry                      152                       # Number of times write queue was full causing retry
system.mem_ctrls1.totGap                 337056445500                       # Total gap between requests
system.mem_ctrls1.readPktSize::0                    0                       # Read request sizes (log2)
system.mem_ctrls1.readPktSize::1                    0                       # Read request sizes (log2)
system.mem_ctrls1.readPktSize::2                    0                       # Read request sizes (log2)
system.mem_ctrls1.readPktSize::3                    0                       # Read request sizes (log2)
system.mem_ctrls1.readPktSize::4                    0                       # Read request sizes (log2)
system.mem_ctrls1.readPktSize::5                    0                       # Read request sizes (log2)
system.mem_ctrls1.readPktSize::6                32176                       # Read request sizes (log2)
system.mem_ctrls1.writePktSize::0                   0                       # Write request sizes (log2)
system.mem_ctrls1.writePktSize::1                   0                       # Write request sizes (log2)
system.mem_ctrls1.writePktSize::2                   0                       # Write request sizes (log2)
system.mem_ctrls1.writePktSize::3                   0                       # Write request sizes (log2)
system.mem_ctrls1.writePktSize::4                   0                       # Write request sizes (log2)
system.mem_ctrls1.writePktSize::5                   0                       # Write request sizes (log2)
system.mem_ctrls1.writePktSize::6               37676                       # Write request sizes (log2)
system.mem_ctrls1.rdQLenPdf::0                  31935                       # What read queue length does an incoming req see
system.mem_ctrls1.rdQLenPdf::1                      2                       # What read queue length does an incoming req see
system.mem_ctrls1.rdQLenPdf::2                      0                       # What read queue length does an incoming req see
system.mem_ctrls1.rdQLenPdf::3                      0                       # What read queue length does an incoming req see
system.mem_ctrls1.rdQLenPdf::4                      0                       # What read queue length does an incoming req see
system.mem_ctrls1.rdQLenPdf::5                      0                       # What read queue length does an incoming req see
system.mem_ctrls1.rdQLenPdf::6                      0                       # What read queue length does an incoming req see
system.mem_ctrls1.rdQLenPdf::7                      0                       # What read queue length does an incoming req see
system.mem_ctrls1.rdQLenPdf::8                      0                       # What read queue length does an incoming req see
system.mem_ctrls1.rdQLenPdf::9                      0                       # What read queue length does an incoming req see
system.mem_ctrls1.rdQLenPdf::10                     0                       # What read queue length does an incoming req see
system.mem_ctrls1.rdQLenPdf::11                     0                       # What read queue length does an incoming req see
system.mem_ctrls1.rdQLenPdf::12                     0                       # What read queue length does an incoming req see
system.mem_ctrls1.rdQLenPdf::13                     0                       # What read queue length does an incoming req see
system.mem_ctrls1.rdQLenPdf::14                     0                       # What read queue length does an incoming req see
system.mem_ctrls1.rdQLenPdf::15                     0                       # What read queue length does an incoming req see
system.mem_ctrls1.rdQLenPdf::16                     0                       # What read queue length does an incoming req see
system.mem_ctrls1.rdQLenPdf::17                     0                       # What read queue length does an incoming req see
system.mem_ctrls1.rdQLenPdf::18                     0                       # What read queue length does an incoming req see
system.mem_ctrls1.rdQLenPdf::19                     0                       # What read queue length does an incoming req see
system.mem_ctrls1.rdQLenPdf::20                     0                       # What read queue length does an incoming req see
system.mem_ctrls1.rdQLenPdf::21                     0                       # What read queue length does an incoming req see
system.mem_ctrls1.rdQLenPdf::22                     0                       # What read queue length does an incoming req see
system.mem_ctrls1.rdQLenPdf::23                     0                       # What read queue length does an incoming req see
system.mem_ctrls1.rdQLenPdf::24                     0                       # What read queue length does an incoming req see
system.mem_ctrls1.rdQLenPdf::25                     0                       # What read queue length does an incoming req see
system.mem_ctrls1.rdQLenPdf::26                     0                       # What read queue length does an incoming req see
system.mem_ctrls1.rdQLenPdf::27                     0                       # What read queue length does an incoming req see
system.mem_ctrls1.rdQLenPdf::28                     0                       # What read queue length does an incoming req see
system.mem_ctrls1.rdQLenPdf::29                     0                       # What read queue length does an incoming req see
system.mem_ctrls1.rdQLenPdf::30                     0                       # What read queue length does an incoming req see
system.mem_ctrls1.rdQLenPdf::31                     0                       # What read queue length does an incoming req see
system.mem_ctrls1.wrQLenPdf::0                      0                       # What write queue length does an incoming req see
system.mem_ctrls1.wrQLenPdf::1                      0                       # What write queue length does an incoming req see
system.mem_ctrls1.wrQLenPdf::2                      0                       # What write queue length does an incoming req see
system.mem_ctrls1.wrQLenPdf::3                      0                       # What write queue length does an incoming req see
system.mem_ctrls1.wrQLenPdf::4                      0                       # What write queue length does an incoming req see
system.mem_ctrls1.wrQLenPdf::5                      0                       # What write queue length does an incoming req see
system.mem_ctrls1.wrQLenPdf::6                      0                       # What write queue length does an incoming req see
system.mem_ctrls1.wrQLenPdf::7                      0                       # What write queue length does an incoming req see
system.mem_ctrls1.wrQLenPdf::8                      0                       # What write queue length does an incoming req see
system.mem_ctrls1.wrQLenPdf::9                      0                       # What write queue length does an incoming req see
system.mem_ctrls1.wrQLenPdf::10                     0                       # What write queue length does an incoming req see
system.mem_ctrls1.wrQLenPdf::11                     0                       # What write queue length does an incoming req see
system.mem_ctrls1.wrQLenPdf::12                     0                       # What write queue length does an incoming req see
system.mem_ctrls1.wrQLenPdf::13                     0                       # What write queue length does an incoming req see
system.mem_ctrls1.wrQLenPdf::14                     0                       # What write queue length does an incoming req see
system.mem_ctrls1.wrQLenPdf::15                   254                       # What write queue length does an incoming req see
system.mem_ctrls1.wrQLenPdf::16                   376                       # What write queue length does an incoming req see
system.mem_ctrls1.wrQLenPdf::17                  2067                       # What write queue length does an incoming req see
system.mem_ctrls1.wrQLenPdf::18                  2126                       # What write queue length does an incoming req see
system.mem_ctrls1.wrQLenPdf::19                  2144                       # What write queue length does an incoming req see
system.mem_ctrls1.wrQLenPdf::20                  2129                       # What write queue length does an incoming req see
system.mem_ctrls1.wrQLenPdf::21                  2111                       # What write queue length does an incoming req see
system.mem_ctrls1.wrQLenPdf::22                  2171                       # What write queue length does an incoming req see
system.mem_ctrls1.wrQLenPdf::23                  2176                       # What write queue length does an incoming req see
system.mem_ctrls1.wrQLenPdf::24                  2221                       # What write queue length does an incoming req see
system.mem_ctrls1.wrQLenPdf::25                  2260                       # What write queue length does an incoming req see
system.mem_ctrls1.wrQLenPdf::26                  2097                       # What write queue length does an incoming req see
system.mem_ctrls1.wrQLenPdf::27                  2060                       # What write queue length does an incoming req see
system.mem_ctrls1.wrQLenPdf::28                  2066                       # What write queue length does an incoming req see
system.mem_ctrls1.wrQLenPdf::29                  2050                       # What write queue length does an incoming req see
system.mem_ctrls1.wrQLenPdf::30                  2021                       # What write queue length does an incoming req see
system.mem_ctrls1.wrQLenPdf::31                  2002                       # What write queue length does an incoming req see
system.mem_ctrls1.wrQLenPdf::32                  1997                       # What write queue length does an incoming req see
system.mem_ctrls1.wrQLenPdf::33                   121                       # What write queue length does an incoming req see
system.mem_ctrls1.wrQLenPdf::34                   108                       # What write queue length does an incoming req see
system.mem_ctrls1.wrQLenPdf::35                   102                       # What write queue length does an incoming req see
system.mem_ctrls1.wrQLenPdf::36                    98                       # What write queue length does an incoming req see
system.mem_ctrls1.wrQLenPdf::37                   103                       # What write queue length does an incoming req see
system.mem_ctrls1.wrQLenPdf::38                   106                       # What write queue length does an incoming req see
system.mem_ctrls1.wrQLenPdf::39                   107                       # What write queue length does an incoming req see
system.mem_ctrls1.wrQLenPdf::40                   110                       # What write queue length does an incoming req see
system.mem_ctrls1.wrQLenPdf::41                   112                       # What write queue length does an incoming req see
system.mem_ctrls1.wrQLenPdf::42                   110                       # What write queue length does an incoming req see
system.mem_ctrls1.wrQLenPdf::43                   105                       # What write queue length does an incoming req see
system.mem_ctrls1.wrQLenPdf::44                   103                       # What write queue length does an incoming req see
system.mem_ctrls1.wrQLenPdf::45                    97                       # What write queue length does an incoming req see
system.mem_ctrls1.wrQLenPdf::46                    95                       # What write queue length does an incoming req see
system.mem_ctrls1.wrQLenPdf::47                    94                       # What write queue length does an incoming req see
system.mem_ctrls1.wrQLenPdf::48                    98                       # What write queue length does an incoming req see
system.mem_ctrls1.wrQLenPdf::49                    93                       # What write queue length does an incoming req see
system.mem_ctrls1.wrQLenPdf::50                    96                       # What write queue length does an incoming req see
system.mem_ctrls1.wrQLenPdf::51                   100                       # What write queue length does an incoming req see
system.mem_ctrls1.wrQLenPdf::52                   100                       # What write queue length does an incoming req see
system.mem_ctrls1.wrQLenPdf::53                   106                       # What write queue length does an incoming req see
system.mem_ctrls1.wrQLenPdf::54                   109                       # What write queue length does an incoming req see
system.mem_ctrls1.wrQLenPdf::55                   121                       # What write queue length does an incoming req see
system.mem_ctrls1.wrQLenPdf::56                   131                       # What write queue length does an incoming req see
system.mem_ctrls1.wrQLenPdf::57                   112                       # What write queue length does an incoming req see
system.mem_ctrls1.wrQLenPdf::58                   102                       # What write queue length does an incoming req see
system.mem_ctrls1.wrQLenPdf::59                   106                       # What write queue length does an incoming req see
system.mem_ctrls1.wrQLenPdf::60                    88                       # What write queue length does an incoming req see
system.mem_ctrls1.wrQLenPdf::61                    78                       # What write queue length does an incoming req see
system.mem_ctrls1.wrQLenPdf::62                   100                       # What write queue length does an incoming req see
system.mem_ctrls1.wrQLenPdf::63                   237                       # What write queue length does an incoming req see
system.mem_ctrls1.bytesPerActivate::samples        17346                       # Bytes accessed per row activation
system.mem_ctrls1.bytesPerActivate::mean   256.800646                       # Bytes accessed per row activation
system.mem_ctrls1.bytesPerActivate::gmean   182.198911                       # Bytes accessed per row activation
system.mem_ctrls1.bytesPerActivate::stdev   222.242035                       # Bytes accessed per row activation
system.mem_ctrls1.bytesPerActivate::0-127         5084     29.31%     29.31% # Bytes accessed per row activation
system.mem_ctrls1.bytesPerActivate::128-255         4675     26.95%     56.26% # Bytes accessed per row activation
system.mem_ctrls1.bytesPerActivate::256-383         2965     17.09%     73.35% # Bytes accessed per row activation
system.mem_ctrls1.bytesPerActivate::384-511         2292     13.21%     86.57% # Bytes accessed per row activation
system.mem_ctrls1.bytesPerActivate::512-639         1313      7.57%     94.14% # Bytes accessed per row activation
system.mem_ctrls1.bytesPerActivate::640-767          229      1.32%     95.46% # Bytes accessed per row activation
system.mem_ctrls1.bytesPerActivate::768-895          128      0.74%     96.20% # Bytes accessed per row activation
system.mem_ctrls1.bytesPerActivate::896-1023           98      0.56%     96.76% # Bytes accessed per row activation
system.mem_ctrls1.bytesPerActivate::1024-1151          562      3.24%    100.00% # Bytes accessed per row activation
system.mem_ctrls1.bytesPerActivate::total        17346                       # Bytes accessed per row activation
system.mem_ctrls1.rdPerTurnAround::samples         1963                       # Reads before turning the bus around for writes
system.mem_ctrls1.rdPerTurnAround::mean     16.262354                       # Reads before turning the bus around for writes
system.mem_ctrls1.rdPerTurnAround::stdev     7.817552                       # Reads before turning the bus around for writes
system.mem_ctrls1.rdPerTurnAround::0-3            233     11.87%     11.87% # Reads before turning the bus around for writes
system.mem_ctrls1.rdPerTurnAround::4-7             16      0.82%     12.68% # Reads before turning the bus around for writes
system.mem_ctrls1.rdPerTurnAround::8-11            29      1.48%     14.16% # Reads before turning the bus around for writes
system.mem_ctrls1.rdPerTurnAround::12-15           25      1.27%     15.44% # Reads before turning the bus around for writes
system.mem_ctrls1.rdPerTurnAround::16-19         1281     65.26%     80.69% # Reads before turning the bus around for writes
system.mem_ctrls1.rdPerTurnAround::20-23          230     11.72%     92.41% # Reads before turning the bus around for writes
system.mem_ctrls1.rdPerTurnAround::24-27           80      4.08%     96.48% # Reads before turning the bus around for writes
system.mem_ctrls1.rdPerTurnAround::28-31           23      1.17%     97.66% # Reads before turning the bus around for writes
system.mem_ctrls1.rdPerTurnAround::32-35           15      0.76%     98.42% # Reads before turning the bus around for writes
system.mem_ctrls1.rdPerTurnAround::36-39           14      0.71%     99.13% # Reads before turning the bus around for writes
system.mem_ctrls1.rdPerTurnAround::40-43            5      0.25%     99.39% # Reads before turning the bus around for writes
system.mem_ctrls1.rdPerTurnAround::44-47            2      0.10%     99.49% # Reads before turning the bus around for writes
system.mem_ctrls1.rdPerTurnAround::48-51            4      0.20%     99.69% # Reads before turning the bus around for writes
system.mem_ctrls1.rdPerTurnAround::52-55            1      0.05%     99.75% # Reads before turning the bus around for writes
system.mem_ctrls1.rdPerTurnAround::56-59            1      0.05%     99.80% # Reads before turning the bus around for writes
system.mem_ctrls1.rdPerTurnAround::68-71            1      0.05%     99.85% # Reads before turning the bus around for writes
system.mem_ctrls1.rdPerTurnAround::72-75            1      0.05%     99.90% # Reads before turning the bus around for writes
system.mem_ctrls1.rdPerTurnAround::76-79            1      0.05%     99.95% # Reads before turning the bus around for writes
system.mem_ctrls1.rdPerTurnAround::104-107            1      0.05%    100.00% # Reads before turning the bus around for writes
system.mem_ctrls1.rdPerTurnAround::total         1963                       # Reads before turning the bus around for writes
system.mem_ctrls1.wrPerTurnAround::samples         1963                       # Writes before turning the bus around for reads
system.mem_ctrls1.wrPerTurnAround::mean     19.186959                       # Writes before turning the bus around for reads
system.mem_ctrls1.wrPerTurnAround::gmean    17.799409                       # Writes before turning the bus around for reads
system.mem_ctrls1.wrPerTurnAround::stdev    11.508238                       # Writes before turning the bus around for reads
system.mem_ctrls1.wrPerTurnAround::16-19         1726     87.93%     87.93% # Writes before turning the bus around for reads
system.mem_ctrls1.wrPerTurnAround::20-23           12      0.61%     88.54% # Writes before turning the bus around for reads
system.mem_ctrls1.wrPerTurnAround::24-27           31      1.58%     90.12% # Writes before turning the bus around for reads
system.mem_ctrls1.wrPerTurnAround::28-31           48      2.45%     92.56% # Writes before turning the bus around for reads
system.mem_ctrls1.wrPerTurnAround::32-35           38      1.94%     94.50% # Writes before turning the bus around for reads
system.mem_ctrls1.wrPerTurnAround::36-39           17      0.87%     95.36% # Writes before turning the bus around for reads
system.mem_ctrls1.wrPerTurnAround::40-43           16      0.82%     96.18% # Writes before turning the bus around for reads
system.mem_ctrls1.wrPerTurnAround::44-47           10      0.51%     96.69% # Writes before turning the bus around for reads
system.mem_ctrls1.wrPerTurnAround::48-51           22      1.12%     97.81% # Writes before turning the bus around for reads
system.mem_ctrls1.wrPerTurnAround::52-55            4      0.20%     98.01% # Writes before turning the bus around for reads
system.mem_ctrls1.wrPerTurnAround::56-59            5      0.25%     98.27% # Writes before turning the bus around for reads
system.mem_ctrls1.wrPerTurnAround::60-63            2      0.10%     98.37% # Writes before turning the bus around for reads
system.mem_ctrls1.wrPerTurnAround::64-67            2      0.10%     98.47% # Writes before turning the bus around for reads
system.mem_ctrls1.wrPerTurnAround::68-71            4      0.20%     98.68% # Writes before turning the bus around for reads
system.mem_ctrls1.wrPerTurnAround::72-75            4      0.20%     98.88% # Writes before turning the bus around for reads
system.mem_ctrls1.wrPerTurnAround::76-79            4      0.20%     99.08% # Writes before turning the bus around for reads
system.mem_ctrls1.wrPerTurnAround::80-83            2      0.10%     99.18% # Writes before turning the bus around for reads
system.mem_ctrls1.wrPerTurnAround::88-91            1      0.05%     99.24% # Writes before turning the bus around for reads
system.mem_ctrls1.wrPerTurnAround::92-95            2      0.10%     99.34% # Writes before turning the bus around for reads
system.mem_ctrls1.wrPerTurnAround::96-99            2      0.10%     99.44% # Writes before turning the bus around for reads
system.mem_ctrls1.wrPerTurnAround::100-103            4      0.20%     99.64% # Writes before turning the bus around for reads
system.mem_ctrls1.wrPerTurnAround::104-107            1      0.05%     99.69% # Writes before turning the bus around for reads
system.mem_ctrls1.wrPerTurnAround::116-119            2      0.10%     99.80% # Writes before turning the bus around for reads
system.mem_ctrls1.wrPerTurnAround::120-123            1      0.05%     99.85% # Writes before turning the bus around for reads
system.mem_ctrls1.wrPerTurnAround::128-131            2      0.10%     99.95% # Writes before turning the bus around for reads
system.mem_ctrls1.wrPerTurnAround::136-139            1      0.05%    100.00% # Writes before turning the bus around for reads
system.mem_ctrls1.wrPerTurnAround::total         1963                       # Writes before turning the bus around for reads
system.mem_ctrls1.totQLat                  1635848496                       # Total ticks spent queuing
system.mem_ctrls1.totMemAccLat             2234667246                       # Total ticks spent from burst creation until serviced by the DRAM
system.mem_ctrls1.totBusLat                 159685000                       # Total ticks spent in databus transfers
system.mem_ctrls1.avgQLat                    51221.11                       # Average queueing delay per DRAM burst
system.mem_ctrls1.avgBusLat                   5000.00                       # Average bus latency per DRAM burst
system.mem_ctrls1.avgMemAccLat               69971.11                       # Average memory access latency per DRAM burst
system.mem_ctrls1.avgRdBW                        6.12                       # Average DRAM read bandwidth in MiByte/s
system.mem_ctrls1.avgWrBW                        7.21                       # Average achieved write bandwidth in MiByte/s
system.mem_ctrls1.avgRdBWSys                     6.16                       # Average system read bandwidth in MiByte/s
system.mem_ctrls1.avgWrBWSys                     7.22                       # Average system write bandwidth in MiByte/s
system.mem_ctrls1.peakBW                     12800.00                       # Theoretical peak bandwidth in MiByte/s
system.mem_ctrls1.busUtil                        0.10                       # Data bus utilization in percentage
system.mem_ctrls1.busUtilRead                    0.05                       # Data bus utilization in percentage for reads
system.mem_ctrls1.busUtilWrite                   0.06                       # Data bus utilization in percentage for writes
system.mem_ctrls1.avgRdQLen                      1.00                       # Average read queue length when enqueuing
system.mem_ctrls1.avgWrQLen                     25.20                       # Average write queue length when enqueuing
system.mem_ctrls1.readRowHits                   23681                       # Number of row buffer hits during reads
system.mem_ctrls1.writeRowHits                  28574                       # Number of row buffer hits during writes
system.mem_ctrls1.readRowHitRate                74.15                       # Row buffer hit rate for reads
system.mem_ctrls1.writeRowHitRate               75.84                       # Row buffer hit rate for writes
system.mem_ctrls1.avgGap                   4825294.13                       # Average gap between requests
system.mem_ctrls1.pageHitRate                   75.07                       # Row buffer hit rate, read and write combined
system.mem_ctrls1_0.actEnergy               100324140                       # Energy for activate commands per rank (pJ)
system.mem_ctrls1_0.preEnergy                53323545                       # Energy for precharge commands per rank (pJ)
system.mem_ctrls1_0.readEnergy              234906000                       # Energy for read commands per rank (pJ)
system.mem_ctrls1_0.writeEnergy             117825840                       # Energy for write commands per rank (pJ)
system.mem_ctrls1_0.refreshEnergy        8448841440.000002                       # Energy for refresh commands per rank (pJ)
system.mem_ctrls1_0.actBackEnergy          2860310160                       # Energy for active background per rank (pJ)
system.mem_ctrls1_0.preBackEnergy           522462240                       # Energy for precharge background per rank (pJ)
system.mem_ctrls1_0.actPowerDownEnergy    20334474690                       # Energy for active power-down per rank (pJ)
system.mem_ctrls1_0.prePowerDownEnergy    12125823360                       # Energy for precharge power-down per rank (pJ)
system.mem_ctrls1_0.selfRefreshEnergy    1315178850840                       # Energy for self refresh per rank (pJ)
system.mem_ctrls1_0.totalEnergy          1359978682725                       # Total energy per rank (pJ)
system.mem_ctrls1_0.averagePower           244.761477                       # Core power per rank (mW)
system.mem_ctrls1_0.totalIdleTime        333129115750                       # Total Idle time Per DRAM Rank
system.mem_ctrls1_0.memoryStateTime::IDLE    522548500                       # Time in different power states
system.mem_ctrls1_0.memoryStateTime::REF   1696858000                       # Time in different power states
system.mem_ctrls1_0.memoryStateTime::SREF 298226095250                       # Time in different power states
system.mem_ctrls1_0.memoryStateTime::PRE_PDN  15164338250                       # Time in different power states
system.mem_ctrls1_0.memoryStateTime::ACT   1913916500                       # Time in different power states
system.mem_ctrls1_0.memoryStateTime::ACT_PDN  20222507500                       # Time in different power states
system.mem_ctrls1_1.actEnergy                93741060                       # Energy for activate commands per rank (pJ)
system.mem_ctrls1_1.preEnergy                49824555                       # Energy for precharge commands per rank (pJ)
system.mem_ctrls1_1.readEnergy              234341940                       # Energy for read commands per rank (pJ)
system.mem_ctrls1_1.writeEnergy             120388860                       # Energy for write commands per rank (pJ)
system.mem_ctrls1_1.refreshEnergy        7928241360.000002                       # Energy for refresh commands per rank (pJ)
system.mem_ctrls1_1.actBackEnergy          2820627900                       # Energy for active background per rank (pJ)
system.mem_ctrls1_1.preBackEnergy           454690080                       # Energy for precharge background per rank (pJ)
system.mem_ctrls1_1.actPowerDownEnergy    19615498920                       # Energy for active power-down per rank (pJ)
system.mem_ctrls1_1.prePowerDownEnergy    11004042720                       # Energy for precharge power-down per rank (pJ)
system.mem_ctrls1_1.selfRefreshEnergy    1316182073550                       # Energy for self refresh per rank (pJ)
system.mem_ctrls1_1.totalEnergy          1358505439575                       # Total energy per rank (pJ)
system.mem_ctrls1_1.averagePower           244.496331                       # Core power per rank (mW)
system.mem_ctrls1_1.totalIdleTime        332848291250                       # Total Idle time Per DRAM Rank
system.mem_ctrls1_1.memoryStateTime::IDLE    451567500                       # Time in different power states
system.mem_ctrls1_1.memoryStateTime::REF   1690474000                       # Time in different power states
system.mem_ctrls1_1.memoryStateTime::SREF 298055894750                       # Time in different power states
system.mem_ctrls1_1.memoryStateTime::PRE_PDN  15064627500                       # Time in different power states
system.mem_ctrls1_1.memoryStateTime::ACT   2065791250                       # Time in different power states
system.mem_ctrls1_1.memoryStateTime::ACT_PDN  20191343000                       # Time in different power states
system.mem_ctrls2.pwrStateResidencyTicks::UNDEFINED 5556342854000                       # Cumulative time (in ticks) in various power states
system.mem_ctrls2.bytes_read::ruby.dir_cntrl2      2057920                       # Number of bytes read from this memory
system.mem_ctrls2.bytes_read::total           2057920                       # Number of bytes read from this memory
system.mem_ctrls2.bytes_written::ruby.dir_cntrl2      2396544                       # Number of bytes written to this memory
system.mem_ctrls2.bytes_written::total        2396544                       # Number of bytes written to this memory
system.mem_ctrls2.num_reads::ruby.dir_cntrl2        32155                       # Number of read requests responded to by this memory
system.mem_ctrls2.num_reads::total              32155                       # Number of read requests responded to by this memory
system.mem_ctrls2.num_writes::ruby.dir_cntrl2        37446                       # Number of write requests responded to by this memory
system.mem_ctrls2.num_writes::total             37446                       # Number of write requests responded to by this memory
system.mem_ctrls2.bw_read::ruby.dir_cntrl2      6157779                       # Total read bandwidth from this memory (bytes/s)
system.mem_ctrls2.bw_read::total              6157779                       # Total read bandwidth from this memory (bytes/s)
system.mem_ctrls2.bw_write::ruby.dir_cntrl2      7171022                       # Write bandwidth from this memory (bytes/s)
system.mem_ctrls2.bw_write::total             7171022                       # Write bandwidth from this memory (bytes/s)
system.mem_ctrls2.bw_total::ruby.dir_cntrl2     13328801                       # Total bandwidth to/from this memory (bytes/s)
system.mem_ctrls2.bw_total::total            13328801                       # Total bandwidth to/from this memory (bytes/s)
system.mem_ctrls2.readReqs                      32155                       # Number of read requests accepted
system.mem_ctrls2.writeReqs                     37446                       # Number of write requests accepted
system.mem_ctrls2.readBursts                    32155                       # Number of DRAM read bursts, including those serviced by the write queue
system.mem_ctrls2.writeBursts                   37446                       # Number of DRAM write bursts, including those merged in the write queue
system.mem_ctrls2.bytesReadDRAM               2044096                       # Total number of bytes read from DRAM
system.mem_ctrls2.bytesReadWrQ                  13824                       # Total number of bytes read from write queue
system.mem_ctrls2.bytesWritten                2396096                       # Total number of bytes written to DRAM
system.mem_ctrls2.bytesReadSys                2057920                       # Total read bytes from the system interface side
system.mem_ctrls2.bytesWrittenSys             2396544                       # Total written bytes from the system interface side
system.mem_ctrls2.servicedByWrQ                   216                       # Number of DRAM read bursts serviced by the write queue
system.mem_ctrls2.mergedWrBursts                    0                       # Number of DRAM write bursts merged with an existing one
system.mem_ctrls2.neitherReadNorWriteReqs            0                       # Number of requests that are neither read nor write
system.mem_ctrls2.perBankRdBursts::0             2015                       # Per bank write bursts
system.mem_ctrls2.perBankRdBursts::1             1994                       # Per bank write bursts
system.mem_ctrls2.perBankRdBursts::2             2040                       # Per bank write bursts
system.mem_ctrls2.perBankRdBursts::3             2038                       # Per bank write bursts
system.mem_ctrls2.perBankRdBursts::4             1939                       # Per bank write bursts
system.mem_ctrls2.perBankRdBursts::5             1942                       # Per bank write bursts
system.mem_ctrls2.perBankRdBursts::6             1966                       # Per bank write bursts
system.mem_ctrls2.perBankRdBursts::7             2013                       # Per bank write bursts
system.mem_ctrls2.perBankRdBursts::8             1991                       # Per bank write bursts
system.mem_ctrls2.perBankRdBursts::9             2070                       # Per bank write bursts
system.mem_ctrls2.perBankRdBursts::10            2042                       # Per bank write bursts
system.mem_ctrls2.perBankRdBursts::11            1966                       # Per bank write bursts
system.mem_ctrls2.perBankRdBursts::12            1865                       # Per bank write bursts
system.mem_ctrls2.perBankRdBursts::13            1857                       # Per bank write bursts
system.mem_ctrls2.perBankRdBursts::14            2096                       # Per bank write bursts
system.mem_ctrls2.perBankRdBursts::15            2105                       # Per bank write bursts
system.mem_ctrls2.perBankWrBursts::0             2359                       # Per bank write bursts
[...]
system.ruby.L1Cache_Controller.SM.Fwd_GETX::total       123729                      
system.ruby.L1Cache_Controller.M_I.WB_Ack |      672071    100.00%    100.00% |           0      0.00%    100.00% |           0      0.00%    100.00% |           0      0.00%    100.00% |           0      0.00%    100.00% |           0      0.00%    100.00% |           0      0.00%    100.00% |           0      0.00%    100.00%
system.ruby.L1Cache_Controller.M_I.WB_Ack::total       672071                      
system.ruby.L1Cache_Controller.PF_IS.Load |         845    100.00%    100.00% |           0      0.00%    100.00% |           0      0.00%    100.00% |           0      0.00%    100.00% |           0      0.00%    100.00% |           0      0.00%    100.00% |           0      0.00%    100.00% |           0      0.00%    100.00%
system.ruby.L1Cache_Controller.PF_IS.Load::total          845                      
system.ruby.L1Cache_Controller.PF_IS.Ifetch |         172    100.00%    100.00% |           0      0.00%    100.00% |           0      0.00%    100.00% |           0      0.00%    100.00% |           0      0.00%    100.00% |           0      0.00%    100.00% |           0      0.00%    100.00% |           0      0.00%    100.00%
system.ruby.L1Cache_Controller.PF_IS.Ifetch::total          172                      
system.ruby.L1Cache_Controller.PF_IS.Data_Exclusive |       46318    100.00%    100.00% |           0      0.00%    100.00% |           0      0.00%    100.00% |           0      0.00%    100.00% |           0      0.00%    100.00% |           0      0.00%    100.00% |           0      0.00%    100.00% |           0      0.00%    100.00%
system.ruby.L1Cache_Controller.PF_IS.Data_Exclusive::total        46318                      
system.ruby.L1Cache_Controller.PF_IS.Data_all_Acks |       40204    100.00%    100.00% |           0      0.00%    100.00% |           0      0.00%    100.00% |           0      0.00%    100.00% |           0      0.00%    100.00% |           0      0.00%    100.00% |           0      0.00%    100.00% |           0      0.00%    100.00%
system.ruby.L1Cache_Controller.PF_IS.Data_all_Acks::total        40204                      
system.ruby.L1Cache_Controller.PF_IM.Store |        3380    100.00%    100.00% |           0      0.00%    100.00% |           0      0.00%    100.00% |           0      0.00%    100.00% |           0      0.00%    100.00% |           0      0.00%    100.00% |           0      0.00%    100.00% |           0      0.00%    100.00%
system.ruby.L1Cache_Controller.PF_IM.Store::total         3380                      
system.ruby.L1Cache_Controller.PF_IM.Data_all_Acks |       70187    100.00%    100.00% |           0      0.00%    100.00% |           0      0.00%    100.00% |           0      0.00%    100.00% |           0      0.00%    100.00% |           0      0.00%    100.00% |           0      0.00%    100.00% |           0      0.00%    100.00%
system.ruby.L1Cache_Controller.PF_IM.Data_all_Acks::total        70187                      
system.ruby.L2Cache_Controller.L1_GET_INSTR |      141398     10.20%     10.20% |      158825     11.46%     21.66% |      162680     11.74%     33.40% |      171546     12.38%     45.77% |      175640     12.67%     58.45% |      193311     13.95%     72.39% |      206606     14.91%     87.30% |      176019     12.70%    100.00%
system.ruby.L2Cache_Controller.L1_GET_INSTR::total      1386025                      
system.ruby.L2Cache_Controller.L1_GETS   |      114271     15.20%     15.20% |       92236     12.27%     27.46% |       98272     13.07%     40.53% |       89642     11.92%     52.45% |       87793     11.68%     64.13% |       89893     11.95%     76.08% |       87625     11.65%     87.73% |       92239     12.27%    100.00%
system.ruby.L2Cache_Controller.L1_GETS::total       751971                      
system.ruby.L2Cache_Controller.L1_GETX   |       92131     13.70%     13.70% |       82894     12.33%     26.04% |       84777     12.61%     38.65% |       82345     12.25%     50.89% |       80834     12.02%     62.92% |       84318     12.54%     75.46% |       82289     12.24%     87.70% |       82675     12.30%    100.00%
system.ruby.L2Cache_Controller.L1_GETX::total       672263                      
system.ruby.L2Cache_Controller.L1_PUTX   |      326858     12.17%     12.17% |      319126     11.88%     24.05% |      331374     12.34%     36.38% |      327956     12.21%     48.59% |      330218     12.29%     60.88% |      353257     13.15%     74.03% |      362618     13.50%     87.53% |      334889     12.47%    100.00%
system.ruby.L2Cache_Controller.L1_PUTX::total      2686296                      
system.ruby.L2Cache_Controller.L2_Replacement |       27183     12.46%     12.46% |       27462     12.59%     25.05% |       27232     12.48%     37.53% |       27463     12.59%     50.12% |       27194     12.47%     62.58% |       27366     12.54%     75.13% |       27065     12.41%     87.53% |       27195     12.47%    100.00%
system.ruby.L2Cache_Controller.L2_Replacement::total       218160                      
system.ruby.L2Cache_Controller.L2_Replacement_clean |        3415     13.00%     13.00% |        3293     12.54%     25.53% |        3293     12.54%     38.07% |        3220     12.26%     50.33% |        3280     12.49%     62.81% |        3243     12.34%     75.16% |        3257     12.40%     87.56% |        3269     12.44%    100.00%
system.ruby.L2Cache_Controller.L2_Replacement_clean::total        26270                      
system.ruby.L2Cache_Controller.Mem_Data  |       32359     12.58%     12.58% |       32176     12.51%     25.08% |       32155     12.50%     37.58% |       32133     12.49%     50.07% |       32098     12.48%     62.54% |       32122     12.48%     75.03% |       32134     12.49%     87.52% |       32117     12.48%    100.00%
system.ruby.L2Cache_Controller.Mem_Data::total       257294                      
system.ruby.L2Cache_Controller.Mem_Ack   |       30990     12.60%     12.60% |       30928     12.57%     25.17% |       30690     12.48%     37.65% |       30849     12.54%     50.19% |       30640     12.46%     62.64% |       30775     12.51%     75.15% |       30489     12.39%     87.55% |       30633     12.45%    100.00%
system.ruby.L2Cache_Controller.Mem_Ack::total       245994                      
system.ruby.L2Cache_Controller.WB_Data   |         219    100.00%    100.00% |           0      0.00%    100.00% |           0      0.00%    100.00% |           0      0.00%    100.00% |           0      0.00%    100.00% |           0      0.00%    100.00% |           0      0.00%    100.00% |           0      0.00%    100.00%
system.ruby.L2Cache_Controller.WB_Data::total          219                      
system.ruby.L2Cache_Controller.Ack_all   |         910     12.68%     12.68% |         919     12.80%     25.48% |         883     12.30%     37.78% |         867     12.08%     49.85% |         897     12.49%     62.35% |         884     12.31%     74.66% |         900     12.54%     87.20% |         919     12.80%    100.00%
system.ruby.L2Cache_Controller.Ack_all::total         7179                      
system.ruby.L2Cache_Controller.Unblock   |      206402     14.49%     14.49% |      175128     12.30%     26.79% |      182973     12.85%     39.64% |      171960     12.07%     51.71% |      168626     11.84%     63.55% |      174208     12.23%     75.79% |      169908     11.93%     87.72% |      174913     12.28%    100.00%
system.ruby.L2Cache_Controller.Unblock::total      1424118                      
system.ruby.L2Cache_Controller.MEM_Inv   |         784     25.06%     25.06% |         346     11.06%     36.13% |         330     10.55%     46.68% |         332     10.61%     57.29% |         332     10.61%     67.90% |         332     10.61%     78.52% |         334     10.68%     89.19% |         338     10.81%    100.00%
system.ruby.L2Cache_Controller.MEM_Inv::total         3128                      
system.ruby.L2Cache_Controller.NP.L1_GET_INSTR |         745     12.15%     12.15% |         769     12.54%     24.69% |         781     12.74%     37.43% |         763     12.44%     49.87% |         745     12.15%     62.02% |         763     12.44%     74.46% |         791     12.90%     87.36% |         775     12.64%    100.00%
system.ruby.L2Cache_Controller.NP.L1_GET_INSTR::total         6132                      
system.ruby.L2Cache_Controller.NP.L1_GETS |        6658     12.88%     12.88% |        6386     12.36%     25.24% |        6426     12.43%     37.68% |        6555     12.68%     50.36% |        6369     12.32%     62.69% |        6536     12.65%     75.33% |        6472     12.52%     87.86% |        6275     12.14%    100.00%
system.ruby.L2Cache_Controller.NP.L1_GETS::total        51677                      
system.ruby.L2Cache_Controller.NP.L1_GETX |       24956     12.51%     12.51% |       25021     12.54%     25.05% |       24948     12.51%     37.56% |       24815     12.44%     50.00% |       24984     12.52%     62.52% |       24823     12.44%     74.97% |       24871     12.47%     87.43% |       25067     12.57%    100.00%
system.ruby.L2Cache_Controller.NP.L1_GETX::total       199485                      
system.ruby.L2Cache_Controller.SS.L1_GET_INSTR |      140652     10.19%     10.19% |      158055     11.45%     21.65% |      161896     11.73%     33.38% |      170783     12.38%     45.76% |      174894     12.67%     58.43% |      192546     13.95%     72.38% |      205813     14.92%     87.30% |      175244     12.70%    100.00%
system.ruby.L2Cache_Controller.SS.L1_GET_INSTR::total      1379883                      
system.ruby.L2Cache_Controller.SS.L1_GETS |           0      0.00%      0.00% |           2      1.72%      1.72% |          76     65.52%     67.24% |          27     23.28%     90.52% |           1      0.86%     91.38% |           3      2.59%     93.97% |           6      5.17%     99.14% |           1      0.86%    100.00%
system.ruby.L2Cache_Controller.SS.L1_GETS::total          116                      
system.ruby.L2Cache_Controller.SS.L1_PUTX |      141398     10.20%     10.20% |      158827     11.46%     21.66% |      162756     11.74%     33.40% |      171574     12.38%     45.78% |      175641     12.67%     58.45% |      193314     13.95%     72.40% |      206612     14.91%     87.30% |      176020     12.70%    100.00%
system.ruby.L2Cache_Controller.SS.L1_PUTX::total      1386142                      
system.ruby.L2Cache_Controller.SS.L2_Replacement |           0      0.00%      0.00% |           0      0.00%      0.00% |           0      0.00%      0.00% |           2     66.67%     66.67% |           0      0.00%     66.67% |           1     33.33%    100.00% |           0      0.00%    100.00% |           0      0.00%    100.00%
system.ruby.L2Cache_Controller.SS.L2_Replacement::total            3                      
system.ruby.L2Cache_Controller.SS.L2_Replacement_clean |         907     12.66%     12.66% |         916     12.79%     25.45% |         882     12.31%     37.76% |         864     12.06%     49.83% |         896     12.51%     62.33% |         882     12.31%     74.65% |         899     12.55%     87.20% |         917     12.80%    100.00%
system.ruby.L2Cache_Controller.SS.L2_Replacement_clean::total         7163                      
system.ruby.L2Cache_Controller.M.L1_GET_INSTR |           1     10.00%     10.00% |           1     10.00%     20.00% |           3     30.00%     50.00% |           0      0.00%     50.00% |           1     10.00%     60.00% |           2     20.00%     80.00% |           2     20.00%    100.00% |           0      0.00%    100.00%
system.ruby.L2Cache_Controller.M.L1_GET_INSTR::total           10                      
system.ruby.L2Cache_Controller.M.L1_GETS |      107613     15.37%     15.37% |       85848     12.26%     27.63% |       91770     13.11%     40.74% |       83060     11.86%     52.60% |       81423     11.63%     64.23% |       83354     11.90%     76.13% |       81147     11.59%     87.72% |       85963     12.28%    100.00%
system.ruby.L2Cache_Controller.M.L1_GETS::total       700178                      
system.ruby.L2Cache_Controller.M.L1_GETX |       46455     13.31%     13.31% |       43048     12.33%     25.64% |       45476     13.03%     38.67% |       41954     12.02%     50.69% |       41802     11.98%     62.67% |       45231     12.96%     75.62% |       43517     12.47%     88.09% |       41566     11.91%    100.00%
system.ruby.L2Cache_Controller.M.L1_GETX::total       349049                      
system.ruby.L2Cache_Controller.M.L2_Replacement |       27183     12.46%     12.46% |       27462     12.59%     25.05% |       27232     12.48%     37.53% |       27461     12.59%     50.12% |       27194     12.47%     62.58% |       27365     12.54%     75.13% |       27065     12.41%     87.53% |       27195     12.47%    100.00%
system.ruby.L2Cache_Controller.M.L2_Replacement::total       218157                      
system.ruby.L2Cache_Controller.M.L2_Replacement_clean |        2508     13.13%     13.13% |        2377     12.44%     25.57% |        2411     12.62%     38.18% |        2356     12.33%     50.52% |        2384     12.48%     62.99% |        2361     12.36%     75.35% |        2358     12.34%     87.69% |        2352     12.31%    100.00%
system.ruby.L2Cache_Controller.M.L2_Replacement_clean::total        19107                      
system.ruby.L2Cache_Controller.M.MEM_Inv |         170     12.76%     12.76% |         170     12.76%     25.53% |         164     12.31%     37.84% |         165     12.39%     50.23% |         165     12.39%     62.61% |         165     12.39%     75.00% |         166     12.46%     87.46% |         167     12.54%    100.00%
system.ruby.L2Cache_Controller.M.MEM_Inv::total         1332                      
system.ruby.L2Cache_Controller.MT.L1_GETX |       20720     16.75%     16.75% |       14825     11.98%     28.73% |       14353     11.60%     40.33% |       15576     12.59%     52.92% |       14048     11.35%     64.27% |       14264     11.53%     75.80% |       13901     11.24%     87.03% |       16042     12.97%    100.00%
system.ruby.L2Cache_Controller.MT.L1_GETX::total       123729                      
system.ruby.L2Cache_Controller.MT.L1_PUTX |      185460     14.26%     14.26% |      160299     12.33%     26.59% |      168618     12.97%     39.56% |      156382     12.03%     51.59% |      154577     11.89%     63.48% |      159943     12.30%     75.78% |      156006     12.00%     87.78% |      158869     12.22%    100.00%
system.ruby.L2Cache_Controller.MT.L1_PUTX::total      1300154                      
system.ruby.L2Cache_Controller.MT.MEM_Inv |         222     95.69%     95.69% |           3      1.29%     96.98% |           1      0.43%     97.41% |           1      0.43%     97.84% |           1      0.43%     98.28% |           1      0.43%     98.71% |           1      0.43%     99.14% |           2      0.86%    100.00%
system.ruby.L2Cache_Controller.MT.MEM_Inv::total          232                      
system.ruby.L2Cache_Controller.M_I.Mem_Ack |       30990     12.60%     12.60% |       30928     12.57%     25.17% |       30690     12.48%     37.65% |       30849     12.54%     50.19% |       30640     12.46%     62.64% |       30775     12.51%     75.15% |       30489     12.39%     87.55% |       30633     12.45%    100.00%
system.ruby.L2Cache_Controller.M_I.Mem_Ack::total       245994                      
system.ruby.L2Cache_Controller.M_I.MEM_Inv |         170     12.76%     12.76% |         170     12.76%     25.53% |         164     12.31%     37.84% |         165     12.39%     50.23% |         165     12.39%     62.61% |         165     12.39%     75.00% |         166     12.46%     87.46% |         167     12.54%    100.00%
system.ruby.L2Cache_Controller.M_I.MEM_Inv::total         1332                      
system.ruby.L2Cache_Controller.MT_I.WB_Data |         219    100.00%    100.00% |           0      0.00%    100.00% |           0      0.00%    100.00% |           0      0.00%    100.00% |           0      0.00%    100.00% |           0      0.00%    100.00% |           0      0.00%    100.00% |           0      0.00%    100.00%
system.ruby.L2Cache_Controller.MT_I.WB_Data::total          219                      
system.ruby.L2Cache_Controller.MT_I.Ack_all |           3     23.08%     23.08% |           3     23.08%     46.15% |           1      7.69%     53.85% |           1      7.69%     61.54% |           1      7.69%     69.23% |           1      7.69%     76.92% |           1      7.69%     84.62% |           2     15.38%    100.00%
system.ruby.L2Cache_Controller.MT_I.Ack_all::total           13                      
system.ruby.L2Cache_Controller.MT_I.MEM_Inv |         222     95.69%     95.69% |           3      1.29%     96.98% |           1      0.43%     97.41% |           1      0.43%     97.84% |           1      0.43%     98.28% |           1      0.43%     98.71% |           1      0.43%     99.14% |           2      0.86%    100.00%
system.ruby.L2Cache_Controller.MT_I.MEM_Inv::total          232                      
system.ruby.L2Cache_Controller.I_I.Ack_all |         907     12.66%     12.66% |         916     12.79%     25.45% |         882     12.31%     37.76% |         864     12.06%     49.83% |         896     12.51%     62.33% |         882     12.31%     74.65% |         899     12.55%     87.20% |         917     12.80%    100.00%
system.ruby.L2Cache_Controller.I_I.Ack_all::total         7163                      
system.ruby.L2Cache_Controller.S_I.Ack_all |           0      0.00%      0.00% |           0      0.00%      0.00% |           0      0.00%      0.00% |           2     66.67%     66.67% |           0      0.00%     66.67% |           1     33.33%    100.00% |           0      0.00%    100.00% |           0      0.00%    100.00%
system.ruby.L2Cache_Controller.S_I.Ack_all::total            3                      
system.ruby.L2Cache_Controller.ISS.Mem_Data |        6658     12.88%     12.88% |        6386     12.36%     25.24% |        6426     12.43%     37.68% |        6555     12.68%     50.36% |        6369     12.32%     62.69% |        6536     12.65%     75.33% |        6472     12.52%     87.86% |        6275     12.14%    100.00%
system.ruby.L2Cache_Controller.ISS.Mem_Data::total        51677                      
system.ruby.L2Cache_Controller.IS.Mem_Data |         745     12.15%     12.15% |         769     12.54%     24.69% |         781     12.74%     37.43% |         763     12.44%     49.87% |         745     12.15%     62.02% |         763     12.44%     74.46% |         791     12.90%     87.36% |         775     12.64%    100.00%
system.ruby.L2Cache_Controller.IS.Mem_Data::total         6132                      
system.ruby.L2Cache_Controller.IM.Mem_Data |       24956     12.51%     12.51% |       25021     12.54%     25.05% |       24948     12.51%     37.56% |       24815     12.44%     50.00% |       24984     12.52%     62.52% |       24823     12.44%     74.97% |       24871     12.47%     87.43% |       25067     12.57%    100.00%
system.ruby.L2Cache_Controller.IM.Mem_Data::total       199485                      
system.ruby.L2Cache_Controller.MT_MB.Unblock |      206402     14.49%     14.49% |      175128     12.30%     26.79% |      182973     12.85%     39.64% |      171960     12.07%     51.71% |      168626     11.84%     63.55% |      174208     12.23%     75.79% |      169908     11.93%     87.72% |      174913     12.28%    100.00%
system.ruby.L2Cache_Controller.MT_MB.Unblock::total      1424118                      

---------- End Simulation Statistics   ----------
