
---------- Begin Simulation Statistics ----------
sim_seconds                                  0.455099                       # Number of seconds simulated
sim_ticks                                455099120000                       # Number of ticks simulated
final_tick                               5824488833000                       # Number of ticks from beginning of simulation (restored from checkpoints and never reset)
sim_freq                                 1000000000000                       # Frequency of simulated ticks
host_inst_rate                                 614102                       # Simulator instruction rate (inst/s)
host_op_rate                                  1123931                       # Simulator op (including micro ops) rate (op/s)
host_tick_rate                              931590549                       # Simulator tick rate (ticks/s)
host_mem_usage                                1928460                       # Number of bytes of host memory used
host_seconds                                   488.52                       # Real time elapsed on the host
sim_insts                                   300000000                       # Number of instructions simulated
sim_ops                                     549061192                       # Number of ops (including micro ops) simulated
system.voltage_domain.voltage                       1                       # Voltage in Volts
system.clk_domain.clock                          1000                       # Clock period in ticks
system.mem_ctrls0.pwrStateResidencyTicks::UNDEFINED 5824488833000                       # Cumulative time (in ticks) in various power states
system.mem_ctrls0.bytes_read::ruby.dir_cntrl0     17443008                       # Number of bytes read from this memory
system.mem_ctrls0.bytes_read::total          17443008                       # Number of bytes read from this memory
system.mem_ctrls0.bytes_written::ruby.dir_cntrl0     18025792                       # Number of bytes written to this memory
system.mem_ctrls0.bytes_written::total       18025792                       # Number of bytes written to this memory
system.mem_ctrls0.num_reads::ruby.dir_cntrl0       272547                       # Number of read requests responded to by this memory
system.mem_ctrls0.num_reads::total             272547                       # Number of read requests responded to by this memory
system.mem_ctrls0.num_writes::ruby.dir_cntrl0       281653                       # Number of write requests responded to by this memory
system.mem_ctrls0.num_writes::total            281653                       # Number of write requests responded to by this memory
system.mem_ctrls0.bw_read::ruby.dir_cntrl0     38327932                       # Total read bandwidth from this memory (bytes/s)
system.mem_ctrls0.bw_read::total             38327932                       # Total read bandwidth from this memory (bytes/s)
system.mem_ctrls0.bw_write::ruby.dir_cntrl0     39608497                       # Write bandwidth from this memory (bytes/s)
system.mem_ctrls0.bw_write::total            39608497                       # Write bandwidth from this memory (bytes/s)
system.mem_ctrls0.bw_total::ruby.dir_cntrl0     77936428                       # Total bandwidth to/from this memory (bytes/s)
system.mem_ctrls0.bw_total::total            77936428                       # Total bandwidth to/from this memory (bytes/s)
system.mem_ctrls0.readReqs                     272547                       # Number of read requests accepted
system.mem_ctrls0.writeReqs                    281653                       # Number of write requests accepted
system.mem_ctrls0.readBursts                   272547                       # Number of DRAM read bursts, including those serviced by the write queue
system.mem_ctrls0.writeBursts                  281653                       # Number of DRAM write bursts, including those merged in the write queue
system.mem_ctrls0.bytesReadDRAM              13423104                       # Total number of bytes read from DRAM
system.mem_ctrls0.bytesReadWrQ                4019904                       # Total number of bytes read from write queue
system.mem_ctrls0.bytesWritten               15940288                       # Total number of bytes written to DRAM
system.mem_ctrls0.bytesReadSys               17443008                       # Total read bytes from the system interface side
system.mem_ctrls0.bytesWrittenSys            18025792                       # Total written bytes from the system interface side
system.mem_ctrls0.servicedByWrQ                 62811                       # Number of DRAM read bursts serviced by the write queue
system.mem_ctrls0.mergedWrBursts                32588                       # Number of DRAM write bursts merged with an existing one
system.mem_ctrls0.neitherReadNorWriteReqs            0                       # Number of requests that are neither read nor write
system.mem_ctrls0.perBankRdBursts::0            14586                       # Per bank write bursts
system.mem_ctrls0.perBankRdBursts::1            12932                       # Per bank write bursts
system.mem_ctrls0.perBankRdBursts::2            14983                       # Per bank write bursts
system.mem_ctrls0.perBankRdBursts::3            11336                       # Per bank write bursts
system.mem_ctrls0.perBankRdBursts::4            16223                       # Per bank write bursts
system.mem_ctrls0.perBankRdBursts::5            21463                       # Per bank write bursts
system.mem_ctrls0.perBankRdBursts::6            17096                       # Per bank write bursts
system.mem_ctrls0.perBankRdBursts::7            17490                       # Per bank write bursts
system.mem_ctrls0.perBankRdBursts::8             7602                       # Per bank write bursts
system.mem_ctrls0.perBankRdBursts::9             8228                       # Per bank write bursts
system.mem_ctrls0.perBankRdBursts::10            8331                       # Per bank write bursts
system.mem_ctrls0.perBankRdBursts::11            5889                       # Per bank write bursts
system.mem_ctrls0.perBankRdBursts::12            6660                       # Per bank write bursts
system.mem_ctrls0.perBankRdBursts::13           18001                       # Per bank write bursts
system.mem_ctrls0.perBankRdBursts::14           14274                       # Per bank write bursts
system.mem_ctrls0.perBankRdBursts::15           14642                       # Per bank write bursts
system.mem_ctrls0.perBankWrBursts::0            17131                       # Per bank write bursts
system.mem_ctrls0.perBankWrBursts::1            15674                       # Per bank write bursts
system.mem_ctrls0.perBankWrBursts::2            18309                       # Per bank write bursts
system.mem_ctrls0.perBankWrBursts::3            13000                       # Per bank write bursts
system.mem_ctrls0.perBankWrBursts::4            18740                       # Per bank write bursts
system.mem_ctrls0.perBankWrBursts::5            26574                       # Per bank write bursts
system.mem_ctrls0.perBankWrBursts::6            20669                       # Per bank write bursts
system.mem_ctrls0.perBankWrBursts::7            21070                       # Per bank write bursts
system.mem_ctrls0.perBankWrBursts::8             9295                       # Per bank write bursts
system.mem_ctrls0.perBankWrBursts::9             9780                       # Per bank write bursts
system.mem_ctrls0.perBankWrBursts::10           10714                       # Per bank write bursts
system.mem_ctrls0.perBankWrBursts::11            6694                       # Per bank write bursts
system.mem_ctrls0.perBankWrBursts::12            7521                       # Per bank write bursts
system.mem_ctrls0.perBankWrBursts::13           20335                       # Per bank write bursts
system.mem_ctrls0.perBankWrBursts::14           16038                       # Per bank write bursts
system.mem_ctrls0.perBankWrBursts::15           17523                       # Per bank write bursts
system.mem_ctrls0.numRdRetry                        0                       # Number of times read queue was full causing retry
system.mem_ctrls0.numWrRetry                        0                       # Number of times write queue was full causing retry
system.mem_ctrls0.totGap                 454987009000                       # Total gap between requests
system.mem_ctrls0.readPktSize::0                    0                       # Read request sizes (log2)
system.mem_ctrls0.readPktSize::1                    0                       # Read request sizes (log2)
system.mem_ctrls0.readPktSize::2                    0                       # Read request sizes (log2)
system.mem_ctrls0.readPktSize::3                    0                       # Read request sizes (log2)
system.mem_ctrls0.readPktSize::4                    0                       # Read request sizes (log2)
system.mem_ctrls0.readPktSize::5                    0                       # Read request sizes (log2)
system.mem_ctrls0.readPktSize::6               272547                       # Read request sizes (log2)
system.mem_ctrls0.writePktSize::0                   0                       # Write request sizes (log2)
system.mem_ctrls0.writePktSize::1                   0                       # Write request sizes (log2)
system.mem_ctrls0.writePktSize::2                   0                       # Write request sizes (log2)
system.mem_ctrls0.writePktSize::3                   0                       # Write request sizes (log2)
system.mem_ctrls0.writePktSize::4                   0                       # Write request sizes (log2)
system.mem_ctrls0.writePktSize::5                   0                       # Write request sizes (log2)
system.mem_ctrls0.writePktSize::6              281653                       # Write request sizes (log2)
system.mem_ctrls0.rdQLenPdf::0                 209715                       # What read queue length does an incoming req see
system.mem_ctrls0.rdQLenPdf::1                     21                       # What read queue length does an incoming req see
system.mem_ctrls0.rdQLenPdf::2                      0                       # What read queue length does an incoming req see
system.mem_ctrls0.rdQLenPdf::3                      0                       # What read queue length does an incoming req see
system.mem_ctrls0.rdQLenPdf::4                      0                       # What read queue length does an incoming req see
system.mem_ctrls0.rdQLenPdf::5                      0                       # What read queue length does an incoming req see
system.mem_ctrls0.rdQLenPdf::6                      0                       # What read queue length does an incoming req see
system.mem_ctrls0.rdQLenPdf::7                      0                       # What read queue length does an incoming req see
system.mem_ctrls0.rdQLenPdf::8                      0                       # What read queue length does an incoming req see
system.mem_ctrls0.rdQLenPdf::9                      0                       # What read queue length does an incoming req see
system.mem_ctrls0.rdQLenPdf::10                     0                       # What read queue length does an incoming req see
system.mem_ctrls0.rdQLenPdf::11                     0                       # What read queue length does an incoming req see
system.mem_ctrls0.rdQLenPdf::12                     0                       # What read queue length does an incoming req see
system.mem_ctrls0.rdQLenPdf::13                     0                       # What read queue length does an incoming req see
system.mem_ctrls0.rdQLenPdf::14                     0                       # What read queue length does an incoming req see
system.mem_ctrls0.rdQLenPdf::15                     0                       # What read queue length does an incoming req see
system.mem_ctrls0.rdQLenPdf::16                     0                       # What read queue length does an incoming req see
system.mem_ctrls0.rdQLenPdf::17                     0                       # What read queue length does an incoming req see
system.mem_ctrls0.rdQLenPdf::18                     0                       # What read queue length does an incoming req see
system.mem_ctrls0.rdQLenPdf::19                     0                       # What read queue length does an incoming req see
system.mem_ctrls0.rdQLenPdf::20                     0                       # What read queue length does an incoming req see
system.mem_ctrls0.rdQLenPdf::21                     0                       # What read queue length does an incoming req see
system.mem_ctrls0.rdQLenPdf::22                     0                       # What read queue length does an incoming req see
system.mem_ctrls0.rdQLenPdf::23                     0                       # What read queue length does an incoming req see
system.mem_ctrls0.rdQLenPdf::24                     0                       # What read queue length does an incoming req see
system.mem_ctrls0.rdQLenPdf::25                     0                       # What read queue length does an incoming req see
system.mem_ctrls0.rdQLenPdf::26                     0                       # What read queue length does an incoming req see
system.mem_ctrls0.rdQLenPdf::27                     0                       # What read queue length does an incoming req see
system.mem_ctrls0.rdQLenPdf::28                     0                       # What read queue length does an incoming req see
system.mem_ctrls0.rdQLenPdf::29                     0                       # What read queue length does an incoming req see
system.mem_ctrls0.rdQLenPdf::30                     0                       # What read queue length does an incoming req see
system.mem_ctrls0.rdQLenPdf::31                     0                       # What read queue length does an incoming req see
system.mem_ctrls0.wrQLenPdf::0                      0                       # What write queue length does an incoming req see
system.mem_ctrls0.wrQLenPdf::1                      0                       # What write queue length does an incoming req see
system.mem_ctrls0.wrQLenPdf::2                      0                       # What write queue length does an incoming req see
system.mem_ctrls0.wrQLenPdf::3                      0                       # What write queue length does an incoming req see
system.mem_ctrls0.wrQLenPdf::4                      0                       # What write queue length does an incoming req see
system.mem_ctrls0.wrQLenPdf::5                      0                       # What write queue length does an incoming req see
system.mem_ctrls0.wrQLenPdf::6                      0                       # What write queue length does an incoming req see
system.mem_ctrls0.wrQLenPdf::7                      0                       # What write queue length does an incoming req see
system.mem_ctrls0.wrQLenPdf::8                      0                       # What write queue length does an incoming req see
system.mem_ctrls0.wrQLenPdf::9                      0                       # What write queue length does an incoming req see
system.mem_ctrls0.wrQLenPdf::10                     0                       # What write queue length does an incoming req see
system.mem_ctrls0.wrQLenPdf::11                     0                       # What write queue length does an incoming req see
system.mem_ctrls0.wrQLenPdf::12                     0                       # What write queue length does an incoming req see
system.mem_ctrls0.wrQLenPdf::13                     0                       # What write queue length does an incoming req see
system.mem_ctrls0.wrQLenPdf::14                     0                       # What write queue length does an incoming req see
system.mem_ctrls0.wrQLenPdf::15                  2222                       # What write queue length does an incoming req see
system.mem_ctrls0.wrQLenPdf::16                  2428                       # What write queue length does an incoming req see
system.mem_ctrls0.wrQLenPdf::17                 14861                       # What write queue length does an incoming req see
system.mem_ctrls0.wrQLenPdf::18                 15200                       # What write queue length does an incoming req see
system.mem_ctrls0.wrQLenPdf::19                 15275                       # What write queue length does an incoming req see
system.mem_ctrls0.wrQLenPdf::20                 15321                       # What write queue length does an incoming req see
system.mem_ctrls0.wrQLenPdf::21                 15341                       # What write queue length does an incoming req see
system.mem_ctrls0.wrQLenPdf::22                 15374                       # What write queue length does an incoming req see
system.mem_ctrls0.wrQLenPdf::23                 15396                       # What write queue length does an incoming req see
system.mem_ctrls0.wrQLenPdf::24                 15449                       # What write queue length does an incoming req see
system.mem_ctrls0.wrQLenPdf::25                 15502                       # What write queue length does an incoming req see
system.mem_ctrls0.wrQLenPdf::26                 15374                       # What write queue length does an incoming req see
system.mem_ctrls0.wrQLenPdf::27                 15395                       # What write queue length does an incoming req see
system.mem_ctrls0.wrQLenPdf::28                 15291                       # What write queue length does an incoming req see
system.mem_ctrls0.wrQLenPdf::29                 15216                       # What write queue length does an incoming req see
system.mem_ctrls0.wrQLenPdf::30                 15138                       # What write queue length does an incoming req see
system.mem_ctrls0.wrQLenPdf::31                 15078                       # What write queue length does an incoming req see
system.mem_ctrls0.wrQLenPdf::32                 15044                       # What write queue length does an incoming req see
system.mem_ctrls0.wrQLenPdf::33                    26                       # What write queue length does an incoming req see
system.mem_ctrls0.wrQLenPdf::34                    10                       # What write queue length does an incoming req see
system.mem_ctrls0.wrQLenPdf::35                    11                       # What write queue length does an incoming req see
system.mem_ctrls0.wrQLenPdf::36                    13                       # What write queue length does an incoming req see
system.mem_ctrls0.wrQLenPdf::37                    11                       # What write queue length does an incoming req see
system.mem_ctrls0.wrQLenPdf::38                    11                       # What write queue length does an incoming req see
system.mem_ctrls0.wrQLenPdf::39                    11                       # What write queue length does an incoming req see
system.mem_ctrls0.wrQLenPdf::40                    11                       # What write queue length does an incoming req see
system.mem_ctrls0.wrQLenPdf::41                     6                       # What write queue length does an incoming req see
system.mem_ctrls0.wrQLenPdf::42                     8                       # What write queue length does an incoming req see
system.mem_ctrls0.wrQLenPdf::43                     9                       # What write queue length does an incoming req see
system.mem_ctrls0.wrQLenPdf::44                     7                       # What write queue length does an incoming req see
system.mem_ctrls0.wrQLenPdf::45                     9                       # What write queue length does an incoming req see
system.mem_ctrls0.wrQLenPdf::46                     6                       # What write queue length does an incoming req see
system.mem_ctrls0.wrQLenPdf::47                     3                       # What write queue length does an incoming req see
system.mem_ctrls0.wrQLenPdf::48                     1                       # What write queue length does an incoming req see
system.mem_ctrls0.wrQLenPdf::49                     1                       # What write queue length does an incoming req see
system.mem_ctrls0.wrQLenPdf::50                     2                       # What write queue length does an incoming req see
system.mem_ctrls0.wrQLenPdf::51                     3                       # What write queue length does an incoming req see
system.mem_ctrls0.wrQLenPdf::52                     1                       # What write queue length does an incoming req see
system.mem_ctrls0.wrQLenPdf::53                     0                       # What write queue length does an incoming req see
system.mem_ctrls0.wrQLenPdf::54                     0                       # What write queue length does an incoming req see
system.mem_ctrls0.wrQLenPdf::55                     0                       # What write queue length does an incoming req see
system.mem_ctrls0.wrQLenPdf::56                     0                       # What write queue length does an incoming req see
system.mem_ctrls0.wrQLenPdf::57                     0                       # What write queue length does an incoming req see
system.mem_ctrls0.wrQLenPdf::58                     0                       # What write queue length does an incoming req see
system.mem_ctrls0.wrQLenPdf::59                     0                       # What write queue length does an incoming req see
system.mem_ctrls0.wrQLenPdf::60                     0                       # What write queue length does an incoming req see
system.mem_ctrls0.wrQLenPdf::61                     0                       # What write queue length does an incoming req see
system.mem_ctrls0.wrQLenPdf::62                     0                       # What write queue length does an incoming req see
system.mem_ctrls0.wrQLenPdf::63                     0                       # What write queue length does an incoming req see
system.mem_ctrls0.bytesPerActivate::samples       225225                       # Bytes accessed per row activation
system.mem_ctrls0.bytesPerActivate::mean   130.377001                       # Bytes accessed per row activation
system.mem_ctrls0.bytesPerActivate::gmean   101.140651                       # Bytes accessed per row activation
system.mem_ctrls0.bytesPerActivate::stdev   124.819967                       # Bytes accessed per row activation
system.mem_ctrls0.bytesPerActivate::0-127       133163     59.12%     59.12% # Bytes accessed per row activation
system.mem_ctrls0.bytesPerActivate::128-255        61391     27.26%     86.38% # Bytes accessed per row activation
system.mem_ctrls0.bytesPerActivate::256-383        18360      8.15%     94.53% # Bytes accessed per row activation
system.mem_ctrls0.bytesPerActivate::384-511         6625      2.94%     97.48% # Bytes accessed per row activation
system.mem_ctrls0.bytesPerActivate::512-639         2891      1.28%     98.76% # Bytes accessed per row activation
system.mem_ctrls0.bytesPerActivate::640-767         1076      0.48%     99.24% # Bytes accessed per row activation
system.mem_ctrls0.bytesPerActivate::768-895          583      0.26%     99.50% # Bytes accessed per row activation
system.mem_ctrls0.bytesPerActivate::896-1023          380      0.17%     99.66% # Bytes accessed per row activation
system.mem_ctrls0.bytesPerActivate::1024-1151          756      0.34%    100.00% # Bytes accessed per row activation
system.mem_ctrls0.bytesPerActivate::total       225225                       # Bytes accessed per row activation
system.mem_ctrls0.rdPerTurnAround::samples        15021                       # Reads before turning the bus around for writes
system.mem_ctrls0.rdPerTurnAround::mean     13.963052                       # Reads before turning the bus around for writes
system.mem_ctrls0.rdPerTurnAround::stdev     2.664089                       # Reads before turning the bus around for writes
system.mem_ctrls0.rdPerTurnAround::0               73      0.49%      0.49% # Reads before turning the bus around for writes
system.mem_ctrls0.rdPerTurnAround::1               80      0.53%      1.02% # Reads before turning the bus around for writes
system.mem_ctrls0.rdPerTurnAround::2               40      0.27%      1.28% # Reads before turning the bus around for writes
system.mem_ctrls0.rdPerTurnAround::3               38      0.25%      1.54% # Reads before turning the bus around for writes
system.mem_ctrls0.rdPerTurnAround::4               24      0.16%      1.70% # Reads before turning the bus around for writes
system.mem_ctrls0.rdPerTurnAround::5               29      0.19%      1.89% # Reads before turning the bus around for writes
system.mem_ctrls0.rdPerTurnAround::6               29      0.19%      2.08% # Reads before turning the bus around for writes
system.mem_ctrls0.rdPerTurnAround::7               65      0.43%      2.52% # Reads before turning the bus around for writes
system.mem_ctrls0.rdPerTurnAround::8              119      0.79%      3.31% # Reads before turning the bus around for writes
system.mem_ctrls0.rdPerTurnAround::9              254      1.69%      5.00% # Reads before turning the bus around for writes
system.mem_ctrls0.rdPerTurnAround::10             456      3.04%      8.04% # Reads before turning the bus around for writes
system.mem_ctrls0.rdPerTurnAround::11             715      4.76%     12.80% # Reads before turning the bus around for writes
system.mem_ctrls0.rdPerTurnAround::12            1183      7.88%     20.67% # Reads before turning the bus around for writes
system.mem_ctrls0.rdPerTurnAround::13            1690     11.25%     31.92% # Reads before turning the bus around for writes
system.mem_ctrls0.rdPerTurnAround::14            2445     16.28%     48.20% # Reads before turning the bus around for writes
system.mem_ctrls0.rdPerTurnAround::15            3025     20.14%     68.34% # Reads before turning the bus around for writes
system.mem_ctrls0.rdPerTurnAround::16            3879     25.82%     94.16% # Reads before turning the bus around for writes
system.mem_ctrls0.rdPerTurnAround::17             730      4.86%     99.02% # Reads before turning the bus around for writes
system.mem_ctrls0.rdPerTurnAround::18             117      0.78%     99.80% # Reads before turning the bus around for writes
system.mem_ctrls0.rdPerTurnAround::19              22      0.15%     99.95% # Reads before turning the bus around for writes
system.mem_ctrls0.rdPerTurnAround::20               5      0.03%     99.98% # Reads before turning the bus around for writes
system.mem_ctrls0.rdPerTurnAround::21               3      0.02%    100.00% # Reads before turning the bus around for writes
system.mem_ctrls0.rdPerTurnAround::total        15021                       # Reads before turning the bus around for writes
system.mem_ctrls0.wrPerTurnAround::samples        15021                       # Writes before turning the bus around for reads
system.mem_ctrls0.wrPerTurnAround::mean     16.581253                       # Writes before turning the bus around for reads
system.mem_ctrls0.wrPerTurnAround::gmean    16.463226                       # Writes before turning the bus around for reads
system.mem_ctrls0.wrPerTurnAround::stdev     2.711863                       # Writes before turning the bus around for reads
system.mem_ctrls0.wrPerTurnAround::16-17        12714     84.64%     84.64% # Writes before turning the bus around for reads
system.mem_ctrls0.wrPerTurnAround::18-19         2054     13.67%     98.32% # Writes before turning the bus around for reads
system.mem_ctrls0.wrPerTurnAround::20-21           20      0.13%     98.45% # Writes before turning the bus around for reads
system.mem_ctrls0.wrPerTurnAround::22-23            5      0.03%     98.48% # Writes before turning the bus around for reads
system.mem_ctrls0.wrPerTurnAround::24-25           16      0.11%     98.59% # Writes before turning the bus around for reads
system.mem_ctrls0.wrPerTurnAround::26-27           24      0.16%     98.75% # Writes before turning the bus around for reads
system.mem_ctrls0.wrPerTurnAround::28-29           33      0.22%     98.97% # Writes before turning the bus around for reads
system.mem_ctrls0.wrPerTurnAround::30-31           43      0.29%     99.25% # Writes before turning the bus around for reads
system.mem_ctrls0.wrPerTurnAround::32-33           32      0.21%     99.47% # Writes before turning the bus around for reads
system.mem_ctrls0.wrPerTurnAround::34-35           12      0.08%     99.55% # Writes before turning the bus around for reads
system.mem_ctrls0.wrPerTurnAround::36-37            6      0.04%     99.59% # Writes before turning the bus around for reads
system.mem_ctrls0.wrPerTurnAround::38-39           11      0.07%     99.66% # Writes before turning the bus around for reads
system.mem_ctrls0.wrPerTurnAround::40-41           11      0.07%     99.73% # Writes before turning the bus around for reads
system.mem_ctrls0.wrPerTurnAround::42-43            3      0.02%     99.75% # Writes before turning the bus around for reads
system.mem_ctrls0.wrPerTurnAround::44-45            3      0.02%     99.77% # Writes before turning the bus around for reads
system.mem_ctrls0.wrPerTurnAround::46-47            2      0.01%     99.79% # Writes before turning the bus around for reads
system.mem_ctrls0.wrPerTurnAround::48-49           11      0.07%     99.86% # Writes before turning the bus around for reads
system.mem_ctrls0.wrPerTurnAround::52-53            2      0.01%     99.87% # Writes before turning the bus around for reads
system.mem_ctrls0.wrPerTurnAround::54-55            2      0.01%     99.89% # Writes before turning the bus around for reads
system.mem_ctrls0.wrPerTurnAround::56-57            8      0.05%     99.94% # Writes before turning the bus around for reads
system.mem_ctrls0.wrPerTurnAround::58-59            2      0.01%     99.95% # Writes before turning the bus around for reads
system.mem_ctrls0.wrPerTurnAround::60-61            2      0.01%     99.97% # Writes before turning the bus around for reads
system.mem_ctrls0.wrPerTurnAround::68-69            1      0.01%     99.97% # Writes before turning the bus around for reads
system.mem_ctrls0.wrPerTurnAround::70-71            2      0.01%     99.99% # Writes before turning the bus around for reads
system.mem_ctrls0.wrPerTurnAround::78-79            2      0.01%    100.00% # Writes before turning the bus around for reads
system.mem_ctrls0.wrPerTurnAround::total        15021                       # Writes before turning the bus around for reads
system.mem_ctrls0.totQLat                 10362365250                       # Total ticks spent queuing
system.mem_ctrls0.totMemAccLat            14294915250                       # Total ticks spent from burst creation until serviced by the DRAM
system.mem_ctrls0.totBusLat                1048680000                       # Total ticks spent in databus transfers
system.mem_ctrls0.avgQLat                    49406.71                       # Average queueing delay per DRAM burst
system.mem_ctrls0.avgBusLat                   5000.00                       # Average bus latency per DRAM burst
system.mem_ctrls0.avgMemAccLat               68156.71                       # Average memory access latency per DRAM burst
system.mem_ctrls0.avgRdBW                       29.49                       # Average DRAM read bandwidth in MiByte/s
system.mem_ctrls0.avgWrBW                       35.03                       # Average achieved write bandwidth in MiByte/s
system.mem_ctrls0.avgRdBWSys                    38.33                       # Average system read bandwidth in MiByte/s
system.mem_ctrls0.avgWrBWSys                    39.61                       # Average system write bandwidth in MiByte/s
system.mem_ctrls0.peakBW                     12800.00                       # Theoretical peak bandwidth in MiByte/s
system.mem_ctrls0.busUtil                        0.50                       # Data bus utilization in percentage
system.mem_ctrls0.busUtilRead                    0.23                       # Data bus utilization in percentage for reads
system.mem_ctrls0.busUtilWrite                   0.27                       # Data bus utilization in percentage for writes
system.mem_ctrls0.avgRdQLen                      1.00                       # Average read queue length when enqueuing
system.mem_ctrls0.avgWrQLen                     25.54                       # Average write queue length when enqueuing
system.mem_ctrls0.readRowHits                   89602                       # Number of row buffer hits during reads
system.mem_ctrls0.writeRowHits                 143984                       # Number of row buffer hits during writes
system.mem_ctrls0.readRowHitRate                42.72                       # Row buffer hit rate for reads
system.mem_ctrls0.writeRowHitRate               57.81                       # Row buffer hit rate for writes
system.mem_ctrls0.avgGap                    820979.81                       # Average gap between requests
system.mem_ctrls0.pageHitRate                   50.91                       # Row buffer hit rate, read and write combined
system.mem_ctrls0_0.actEnergy              2331474180                       # Energy for activate commands per rank (pJ)
system.mem_ctrls0_0.preEnergy              1239207915                       # Energy for precharge commands per rank (pJ)
system.mem_ctrls0_0.readEnergy             2353872360                       # Energy for read commands per rank (pJ)
system.mem_ctrls0_0.writeEnergy            1953642420                       # Energy for write commands per rank (pJ)
system.mem_ctrls0_0.refreshEnergy        47601409440.000008                       # Energy for refresh commands per rank (pJ)
system.mem_ctrls0_0.actBackEnergy         28800322170                       # Energy for active background per rank (pJ)
system.mem_ctrls0_0.preBackEnergy          1926202560                       # Energy for precharge background per rank (pJ)
system.mem_ctrls0_0.actPowerDownEnergy   158640460290                       # Energy for active power-down per rank (pJ)
system.mem_ctrls0_0.prePowerDownEnergy    50151938880                       # Energy for precharge power-down per rank (pJ)
system.mem_ctrls0_0.selfRefreshEnergy    1270969623225                       # Energy for self refresh per rank (pJ)
system.mem_ctrls0_0.totalEnergy          1565980249470                       # Total energy per rank (pJ)
system.mem_ctrls0_0.averagePower           268.861404                       # Core power per rank (mW)
system.mem_ctrls0_0.totalIdleTime        422907537250                       # Total Idle time Per DRAM Rank
system.mem_ctrls0_0.memoryStateTime::IDLE   1981653500                       # Time in different power states
system.mem_ctrls0_0.memoryStateTime::REF   9981044000                       # Time in different power states
system.mem_ctrls0_0.memoryStateTime::SREF 192795416000                       # Time in different power states
system.mem_ctrls0_0.memoryStateTime::PRE_PDN  71354778500                       # Time in different power states
system.mem_ctrls0_0.memoryStateTime::ACT  20128733500                       # Time in different power states
system.mem_ctrls0_0.memoryStateTime::ACT_PDN 158858320750                       # Time in different power states
system.mem_ctrls0_1.actEnergy              1543803660                       # Energy for activate commands per rank (pJ)
system.mem_ctrls0_1.preEnergy               820551105                       # Energy for precharge commands per rank (pJ)
system.mem_ctrls0_1.readEnergy             1552293120                       # Energy for read commands per rank (pJ)
system.mem_ctrls0_1.writeEnergy            1268632260                       # Energy for write commands per rank (pJ)
system.mem_ctrls0_1.refreshEnergy        50398021440.000008                       # Energy for refresh commands per rank (pJ)
system.mem_ctrls0_1.actBackEnergy         32687140770                       # Energy for active background per rank (pJ)
system.mem_ctrls0_1.preBackEnergy          2269827840                       # Energy for precharge background per rank (pJ)
system.mem_ctrls0_1.actPowerDownEnergy   138504811290                       # Energy for active power-down per rank (pJ)
system.mem_ctrls0_1.prePowerDownEnergy    67724820960                       # Energy for precharge power-down per rank (pJ)
system.mem_ctrls0_1.selfRefreshEnergy    1270185622590                       # Energy for self refresh per rank (pJ)
system.mem_ctrls0_1.totalEnergy          1566980210145                       # Total energy per rank (pJ)
system.mem_ctrls0_1.averagePower           269.033087                       # Core power per rank (mW)
system.mem_ctrls0_1.totalIdleTime        419973860250                       # Total Idle time Per DRAM Rank
system.mem_ctrls0_1.memoryStateTime::IDLE   2301439000                       # Time in different power states
system.mem_ctrls0_1.memoryStateTime::REF  10975174000                       # Time in different power states
system.mem_ctrls0_1.memoryStateTime::SREF 179301799500                       # Time in different power states
system.mem_ctrls0_1.memoryStateTime::PRE_PDN  94516448500                       # Time in different power states
system.mem_ctrls0_1.memoryStateTime::ACT  21751117750                       # Time in different power states
system.mem_ctrls0_1.memoryStateTime::ACT_PDN 146256590250                       # Time in different power states
system.mem_ctrls1.pwrStateResidencyTicks::UNDEFINED 5824488833000                       # Cumulative time (in ticks) in various power states
system.mem_ctrls1.bytes_read::ruby.dir_cntrl1     15578816                       # Number of bytes read from this memory
system.mem_ctrls1.bytes_read::total          15578816                       # Number of bytes read from this memory
system.mem_ctrls1.bytes_written::ruby.dir_cntrl1     16169344                       # Number of bytes written to this memory
system.mem_ctrls1.bytes_written::total       16169344                       # Number of bytes written to this memory
system.mem_ctrls1.num_reads::ruby.dir_cntrl1       243419                       # Number of read requests responded to by this memory
system.mem_ctrls1.num_reads::total             243419                       # Number of read requests responded to by this memory
system.mem_ctrls1.num_writes::ruby.dir_cntrl1       252646                       # Number of write requests responded to by this memory
system.mem_ctrls1.num_writes::total            252646                       # Number of write requests responded to by this memory
system.mem_ctrls1.bw_read::ruby.dir_cntrl1     34231699                       # Total read bandwidth from this memory (bytes/s)
system.mem_ctrls1.bw_read::total             34231699                       # Total read bandwidth from this memory (bytes/s)
system.mem_ctrls1.bw_write::ruby.dir_cntrl1     35529280                       # Write bandwidth from this memory (bytes/s)
system.mem_ctrls1.bw_write::total            35529280                       # Write bandwidth from this memory (bytes/s)
system.mem_ctrls1.bw_total::ruby.dir_cntrl1     69760979                       # Total bandwidth to/from this memory (bytes/s)
system.mem_ctrls1.bw_total::total            69760979                       # Total bandwidth to/from this memory (bytes/s)
system.mem_ctrls1.readReqs                     243419                       # Number of read requests accepted
system.mem_ctrls1.writeReqs                    252646                       # Number of write requests accepted
system.mem_ctrls1.readBursts                   243419                       # Number of DRAM read bursts, including those serviced by the write queue
system.mem_ctrls1.writeBursts                  252646                       # Number of DRAM write bursts, including those merged in the write queue
system.mem_ctrls1.bytesReadDRAM              12413888                       # Total number of bytes read from DRAM
system.mem_ctrls1.bytesReadWrQ                3164928                       # Total number of bytes read from write queue
system.mem_ctrls1.bytesWritten               14522944                       # Total number of bytes written to DRAM
system.mem_ctrls1.bytesReadSys               15578816                       # Total read bytes from the system interface side
system.mem_ctrls1.bytesWrittenSys            16169344                       # Total written bytes from the system interface side
system.mem_ctrls1.servicedByWrQ                 49452                       # Number of DRAM read bursts serviced by the write queue
system.mem_ctrls1.mergedWrBursts                25711                       # Number of DRAM write bursts merged with an existing one
system.mem_ctrls1.neitherReadNorWriteReqs            0                       # Number of requests that are neither read nor write
system.mem_ctrls1.perBankRdBursts::0            12046                       # Per bank write bursts
system.mem_ctrls1.perBankRdBursts::1            12248                       # Per bank write bursts
system.mem_ctrls1.perBankRdBursts::2            12870                       # Per bank write bursts
system.mem_ctrls1.perBankRdBursts::3            10618                       # Per bank write bursts
system.mem_ctrls1.perBankRdBursts::4            15829                       # Per bank write bursts
system.mem_ctrls1.perBankRdBursts::5            19718                       # Per bank write bursts
system.mem_ctrls1.perBankRdBursts::6            15264                       # Per bank write bursts
system.mem_ctrls1.perBankRdBursts::7            15586                       # Per bank write bursts
system.mem_ctrls1.perBankRdBursts::8             6845                       # Per bank write bursts
system.mem_ctrls1.perBankRdBursts::9             8448                       # Per bank write bursts
system.mem_ctrls1.perBankRdBursts::10            7620                       # Per bank write bursts
system.mem_ctrls1.perBankRdBursts::11            5643                       # Per bank write bursts
system.mem_ctrls1.perBankRdBursts::12            6230                       # Per bank write bursts
system.mem_ctrls1.perBankRdBursts::13           17653                       # Per bank write bursts
system.mem_ctrls1.perBankRdBursts::14           14055                       # Per bank write bursts
system.mem_ctrls1.perBankRdBursts::15           13294                       # Per bank write bursts
system.mem_ctrls1.perBankWrBursts::0            14065                       # Per bank write bursts
system.mem_ctrls1.perBankWrBursts::1            14569                       # Per bank write bursts
system.mem_ctrls1.perBankWrBursts::2            14989                       # Per bank write bursts
system.mem_ctrls1.perBankWrBursts::3            11949                       # Per bank write bursts
system.mem_ctrls1.perBankWrBursts::4            17609                       # Per bank write bursts
system.mem_ctrls1.perBankWrBursts::5            23615                       # Per bank write bursts
system.mem_ctrls1.perBankWrBursts::6            18577                       # Per bank write bursts
system.mem_ctrls1.perBankWrBursts::7            18043                       # Per bank write bursts
system.mem_ctrls1.perBankWrBursts::8             8053                       # Per bank write bursts
system.mem_ctrls1.perBankWrBursts::9             9872                       # Per bank write bursts
system.mem_ctrls1.perBankWrBursts::10           10034                       # Per bank write bursts
system.mem_ctrls1.perBankWrBursts::11            6688                       # Per bank write bursts
system.mem_ctrls1.perBankWrBursts::12            6980                       # Per bank write bursts
system.mem_ctrls1.perBankWrBursts::13           20275                       # Per bank write bursts
system.mem_ctrls1.perBankWrBursts::14           15370                       # Per bank write bursts
system.mem_ctrls1.perBankWrBursts::15           16233                       # Per bank write bursts
system.mem_ctrls1.numRdRetry                        0                       # Number of times read queue was full causing retry
system.mem_ctrls1.numWrRetry                        2                       # Number of times write queue was full causing retry
system.mem_ctrls1.totGap                 455001729000                       # Total gap between requests
system.mem_ctrls1.readPktSize::0                    0                       # Read request sizes (log2)
system.mem_ctrls1.readPktSize::1                    0                       # Read request sizes (log2)
system.mem_ctrls1.readPktSize::2                    0                       # Read request sizes (log2)
system.mem_ctrls1.readPktSize::3                    0                       # Read request sizes (log2)
system.mem_ctrls1.readPktSize::4                    0                       # Read request sizes (log2)
system.mem_ctrls1.readPktSize::5                    0                       # Read request sizes (log2)
system.mem_ctrls1.readPktSize::6               243419                       # Read request sizes (log2)
system.mem_ctrls1.writePktSize::0                   0                       # Write request sizes (log2)
system.mem_ctrls1.writePktSize::1                   0                       # Write request sizes (log2)
system.mem_ctrls1.writePktSize::2                   0                       # Write request sizes (log2)
system.mem_ctrls1.writePktSize::3                   0                       # Write request sizes (log2)
system.mem_ctrls1.writePktSize::4                   0                       # Write request sizes (log2)
system.mem_ctrls1.writePktSize::5                   0                       # Write request sizes (log2)
system.mem_ctrls1.writePktSize::6              252646                       # Write request sizes (log2)
system.mem_ctrls1.rdQLenPdf::0                 193967                       # What read queue length does an incoming req see
system.mem_ctrls1.rdQLenPdf::1                      0                       # What read queue length does an incoming req see
system.mem_ctrls1.rdQLenPdf::2                      0                       # What read queue length does an incoming req see
system.mem_ctrls1.rdQLenPdf::3                      0                       # What read queue length does an incoming req see
system.mem_ctrls1.rdQLenPdf::4                      0                       # What read queue length does an incoming req see
system.mem_ctrls1.rdQLenPdf::5                      0                       # What read queue length does an incoming req see
system.mem_ctrls1.rdQLenPdf::6                      0                       # What read queue length does an incoming req see
system.mem_ctrls1.rdQLenPdf::7                      0                       # What read queue length does an incoming req see
system.mem_ctrls1.rdQLenPdf::8                      0                       # What read queue length does an incoming req see
system.mem_ctrls1.rdQLenPdf::9                      0                       # What read queue length does an incoming req see
system.mem_ctrls1.rdQLenPdf::10                     0                       # What read queue length does an incoming req see
system.mem_ctrls1.rdQLenPdf::11                     0                       # What read queue length does an incoming req see
system.mem_ctrls1.rdQLenPdf::12                     0                       # What read queue length does an incoming req see
system.mem_ctrls1.rdQLenPdf::13                     0                       # What read queue length does an incoming req see
system.mem_ctrls1.rdQLenPdf::14                     0                       # What read queue length does an incoming req see
system.mem_ctrls1.rdQLenPdf::15                     0                       # What read queue length does an incoming req see
system.mem_ctrls1.rdQLenPdf::16                     0                       # What read queue length does an incoming req see
system.mem_ctrls1.rdQLenPdf::17                     0                       # What read queue length does an incoming req see
system.mem_ctrls1.rdQLenPdf::18                     0                       # What read queue length does an incoming req see
system.mem_ctrls1.rdQLenPdf::19                     0                       # What read queue length does an incoming req see
system.mem_ctrls1.rdQLenPdf::20                     0                       # What read queue length does an incoming req see
system.mem_ctrls1.rdQLenPdf::21                     0                       # What read queue length does an incoming req see
system.mem_ctrls1.rdQLenPdf::22                     0                       # What read queue length does an incoming req see
system.mem_ctrls1.rdQLenPdf::23                     0                       # What read queue length does an incoming req see
system.mem_ctrls1.rdQLenPdf::24                     0                       # What read queue length does an incoming req see
system.mem_ctrls1.rdQLenPdf::25                     0                       # What read queue length does an incoming req see
system.mem_ctrls1.rdQLenPdf::26                     0                       # What read queue length does an incoming req see
system.mem_ctrls1.rdQLenPdf::27                     0                       # What read queue length does an incoming req see
system.mem_ctrls1.rdQLenPdf::28                     0                       # What read queue length does an incoming req see
system.mem_ctrls1.rdQLenPdf::29                     0                       # What read queue length does an incoming req see
system.mem_ctrls1.rdQLenPdf::30                     0                       # What read queue length does an incoming req see
system.mem_ctrls1.rdQLenPdf::31                     0                       # What read queue length does an incoming req see
system.mem_ctrls1.wrQLenPdf::0                      0                       # What write queue length does an incoming req see
system.mem_ctrls1.wrQLenPdf::1                      0                       # What write queue length does an incoming req see
system.mem_ctrls1.wrQLenPdf::2                      0                       # What write queue length does an incoming req see
system.mem_ctrls1.wrQLenPdf::3                      0                       # What write queue length does an incoming req see
system.mem_ctrls1.wrQLenPdf::4                      0                       # What write queue length does an incoming req see
system.mem_ctrls1.wrQLenPdf::5                      0                       # What write queue length does an incoming req see
system.mem_ctrls1.wrQLenPdf::6                      0                       # What write queue length does an incoming req see
system.mem_ctrls1.wrQLenPdf::7                      0                       # What write queue length does an incoming req see
system.mem_ctrls1.wrQLenPdf::8                      0                       # What write queue length does an incoming req see
system.mem_ctrls1.wrQLenPdf::9                      0                       # What write queue length does an incoming req see
system.mem_ctrls1.wrQLenPdf::10                     0                       # What write queue length does an incoming req see
system.mem_ctrls1.wrQLenPdf::11                     0                       # What write queue length does an incoming req see
system.mem_ctrls1.wrQLenPdf::12                     0                       # What write queue length does an incoming req see
system.mem_ctrls1.wrQLenPdf::13                     0                       # What write queue length does an incoming req see
system.mem_ctrls1.wrQLenPdf::14                     0                       # What write queue length does an incoming req see
system.mem_ctrls1.wrQLenPdf::15                  1892                       # What write queue length does an incoming req see
system.mem_ctrls1.wrQLenPdf::16                  2046                       # What write queue length does an incoming req see
system.mem_ctrls1.wrQLenPdf::17                 13638                       # What write queue length does an incoming req see
system.mem_ctrls1.wrQLenPdf::18                 13881                       # What write queue length does an incoming req see
system.mem_ctrls1.wrQLenPdf::19                 13914                       # What write queue length does an incoming req see
system.mem_ctrls1.wrQLenPdf::20                 13953                       # What write queue length does an incoming req see
system.mem_ctrls1.wrQLenPdf::21                 13968                       # What write queue length does an incoming req see
system.mem_ctrls1.wrQLenPdf::22                 13999                       # What write queue length does an incoming req see
system.mem_ctrls1.wrQLenPdf::23                 13994                       # What write queue length does an incoming req see
system.mem_ctrls1.wrQLenPdf::24                 14025                       # What write queue length does an incoming req see
system.mem_ctrls1.wrQLenPdf::25                 14097                       # What write queue length does an incoming req see
system.mem_ctrls1.wrQLenPdf::26                 13993                       # What write queue length does an incoming req see
system.mem_ctrls1.wrQLenPdf::27                 13971                       # What write queue length does an incoming req see
system.mem_ctrls1.wrQLenPdf::28                 13913                       # What write queue length does an incoming req see
system.mem_ctrls1.wrQLenPdf::29                 13859                       # What write queue length does an incoming req see
system.mem_ctrls1.wrQLenPdf::30                 13807                       # What write queue length does an incoming req see
system.mem_ctrls1.wrQLenPdf::31                 13756                       # What write queue length does an incoming req see
system.mem_ctrls1.wrQLenPdf::32                 13731                       # What write queue length does an incoming req see
system.mem_ctrls1.wrQLenPdf::33                    52                       # What write queue length does an incoming req see
system.mem_ctrls1.wrQLenPdf::34                    41                       # What write queue length does an incoming req see
system.mem_ctrls1.wrQLenPdf::35                    41                       # What write queue length does an incoming req see
system.mem_ctrls1.wrQLenPdf::36                    37                       # What write queue length does an incoming req see
system.mem_ctrls1.wrQLenPdf::37                    36                       # What write queue length does an incoming req see
system.mem_ctrls1.wrQLenPdf::38                    30                       # What write queue length does an incoming req see
system.mem_ctrls1.wrQLenPdf::39                    26                       # What write queue length does an incoming req see
system.mem_ctrls1.wrQLenPdf::40                    20                       # What write queue length does an incoming req see
system.mem_ctrls1.wrQLenPdf::41                    17                       # What write queue length does an incoming req see
system.mem_ctrls1.wrQLenPdf::42                    15                       # What write queue length does an incoming req see
system.mem_ctrls1.wrQLenPdf::43                    18                       # What write queue length does an incoming req see
system.mem_ctrls1.wrQLenPdf::44                    17                       # What write queue length does an incoming req see
system.mem_ctrls1.wrQLenPdf::45                    16                       # What write queue length does an incoming req see
system.mem_ctrls1.wrQLenPdf::46                    12                       # What write queue length does an incoming req see
system.mem_ctrls1.wrQLenPdf::47                     8                       # What write queue length does an incoming req see
system.mem_ctrls1.wrQLenPdf::48                     9                       # What write queue length does an incoming req see
system.mem_ctrls1.wrQLenPdf::49                    12                       # What write queue length does an incoming req see
system.mem_ctrls1.wrQLenPdf::50                    11                       # What write queue length does an incoming req see
system.mem_ctrls1.wrQLenPdf::51                     8                       # What write queue length does an incoming req see
system.mem_ctrls1.wrQLenPdf::52                     6                       # What write queue length does an incoming req see
system.mem_ctrls1.wrQLenPdf::53                     6                       # What write queue length does an incoming req see
system.mem_ctrls1.wrQLenPdf::54                     6                       # What write queue length does an incoming req see
system.mem_ctrls1.wrQLenPdf::55                     7                       # What write queue length does an incoming req see
system.mem_ctrls1.wrQLenPdf::56                     9                       # What write queue length does an incoming req see
system.mem_ctrls1.wrQLenPdf::57                    10                       # What write queue length does an incoming req see
system.mem_ctrls1.wrQLenPdf::58                    10                       # What write queue length does an incoming req see
system.mem_ctrls1.wrQLenPdf::59                     7                       # What write queue length does an incoming req see
system.mem_ctrls1.wrQLenPdf::60                     2                       # What write queue length does an incoming req see
system.mem_ctrls1.wrQLenPdf::61                     2                       # What write queue length does an incoming req see
system.mem_ctrls1.wrQLenPdf::62                     3                       # What write queue length does an incoming req see
system.mem_ctrls1.wrQLenPdf::63                     4                       # What write queue length does an incoming req see
system.mem_ctrls1.bytesPerActivate::samples       203233                       # Bytes accessed per row activation
system.mem_ctrls1.bytesPerActivate::mean   132.546348                       # Bytes accessed per row activation
system.mem_ctrls1.bytesPerActivate::gmean   101.966959                       # Bytes accessed per row activation
system.mem_ctrls1.bytesPerActivate::stdev   129.408675                       # Bytes accessed per row activation
system.mem_ctrls1.bytesPerActivate::0-127       119622     58.86%     58.86% # Bytes accessed per row activation
system.mem_ctrls1.bytesPerActivate::128-255        54769     26.95%     85.81% # Bytes accessed per row activation
system.mem_ctrls1.bytesPerActivate::256-383        17044      8.39%     94.19% # Bytes accessed per row activation
system.mem_ctrls1.bytesPerActivate::384-511         6260      3.08%     97.28% # Bytes accessed per row activation
system.mem_ctrls1.bytesPerActivate::512-639         2743      1.35%     98.62% # Bytes accessed per row activation
system.mem_ctrls1.bytesPerActivate::640-767          969      0.48%     99.10% # Bytes accessed per row activation
system.mem_ctrls1.bytesPerActivate::768-895          588      0.29%     99.39% # Bytes accessed per row activation
system.mem_ctrls1.bytesPerActivate::896-1023          391      0.19%     99.58% # Bytes accessed per row activation
system.mem_ctrls1.bytesPerActivate::1024-1151          847      0.42%    100.00% # Bytes accessed per row activation
system.mem_ctrls1.bytesPerActivate::total       203233                       # Bytes accessed per row activation
system.mem_ctrls1.rdPerTurnAround::samples        13683                       # Reads before turning the bus around for writes
system.mem_ctrls1.rdPerTurnAround::mean     14.174596                       # Reads before turning the bus around for writes
system.mem_ctrls1.rdPerTurnAround::stdev     2.702653                       # Reads before turning the bus around for writes
system.mem_ctrls1.rdPerTurnAround::0               79      0.58%      0.58% # Reads before turning the bus around for writes
system.mem_ctrls1.rdPerTurnAround::1              113      0.83%      1.40% # Reads before turning the bus around for writes
system.mem_ctrls1.rdPerTurnAround::2               37      0.27%      1.67% # Reads before turning the bus around for writes
system.mem_ctrls1.rdPerTurnAround::3               17      0.12%      1.80% # Reads before turning the bus around for writes
system.mem_ctrls1.rdPerTurnAround::4                9      0.07%      1.86% # Reads before turning the bus around for writes
system.mem_ctrls1.rdPerTurnAround::5               15      0.11%      1.97% # Reads before turning the bus around for writes
system.mem_ctrls1.rdPerTurnAround::6               36      0.26%      2.24% # Reads before turning the bus around for writes
system.mem_ctrls1.rdPerTurnAround::7               49      0.36%      2.59% # Reads before turning the bus around for writes
system.mem_ctrls1.rdPerTurnAround::8              108      0.79%      3.38% # Reads before turning the bus around for writes
system.mem_ctrls1.rdPerTurnAround::9              208      1.52%      4.90% # Reads before turning the bus around for writes
system.mem_ctrls1.rdPerTurnAround::10             316      2.31%      7.21% # Reads before turning the bus around for writes
system.mem_ctrls1.rdPerTurnAround::11             485      3.54%     10.76% # Reads before turning the bus around for writes
system.mem_ctrls1.rdPerTurnAround::12             889      6.50%     17.25% # Reads before turning the bus around for writes
system.mem_ctrls1.rdPerTurnAround::13            1343      9.82%     27.07% # Reads before turning the bus around for writes
system.mem_ctrls1.rdPerTurnAround::14            2071     15.14%     42.21% # Reads before turning the bus around for writes
system.mem_ctrls1.rdPerTurnAround::15            2727     19.93%     62.14% # Reads before turning the bus around for writes
system.mem_ctrls1.rdPerTurnAround::16            4404     32.19%     94.32% # Reads before turning the bus around for writes
system.mem_ctrls1.rdPerTurnAround::17             680      4.97%     99.29% # Reads before turning the bus around for writes
system.mem_ctrls1.rdPerTurnAround::18              82      0.60%     99.89% # Reads before turning the bus around for writes
system.mem_ctrls1.rdPerTurnAround::19              14      0.10%     99.99% # Reads before turning the bus around for writes
system.mem_ctrls1.rdPerTurnAround::20               1      0.01%    100.00% # Reads before turning the bus around for writes
system.mem_ctrls1.rdPerTurnAround::total        13683                       # Reads before turning the bus around for writes
system.mem_ctrls1.wrPerTurnAround::samples        13683                       # Writes before turning the bus around for reads
system.mem_ctrls1.wrPerTurnAround::mean     16.584156                       # Writes before turning the bus around for reads
system.mem_ctrls1.wrPerTurnAround::gmean    16.450953                       # Writes before turning the bus around for reads
system.mem_ctrls1.wrPerTurnAround::stdev     3.000729                       # Writes before turning the bus around for reads
system.mem_ctrls1.wrPerTurnAround::16-17        11758     85.93%     85.93% # Writes before turning the bus around for reads
system.mem_ctrls1.wrPerTurnAround::18-19         1677     12.26%     98.19% # Writes before turning the bus around for reads
system.mem_ctrls1.wrPerTurnAround::20-21           13      0.10%     98.28% # Writes before turning the bus around for reads
system.mem_ctrls1.wrPerTurnAround::22-23            9      0.07%     98.35% # Writes before turning the bus around for reads
system.mem_ctrls1.wrPerTurnAround::24-25           18      0.13%     98.48% # Writes before turning the bus around for reads
system.mem_ctrls1.wrPerTurnAround::26-27           31      0.23%     98.71% # Writes before turning the bus around for reads
system.mem_ctrls1.wrPerTurnAround::28-29           31      0.23%     98.93% # Writes before turning the bus around for reads
system.mem_ctrls1.wrPerTurnAround::30-31           30      0.22%     99.15% # Writes before turning the bus around for reads
system.mem_ctrls1.wrPerTurnAround::32-33           33      0.24%     99.39% # Writes before turning the bus around for reads
system.mem_ctrls1.wrPerTurnAround::34-35           13      0.10%     99.49% # Writes before turning the bus around for reads
system.mem_ctrls1.wrPerTurnAround::36-37           11      0.08%     99.57% # Writes before turning the bus around for reads
system.mem_ctrls1.wrPerTurnAround::38-39            9      0.07%     99.63% # Writes before turning the bus around for reads
system.mem_ctrls1.wrPerTurnAround::40-41           11      0.08%     99.71% # Writes before turning the bus around for reads
system.mem_ctrls1.wrPerTurnAround::42-43            1      0.01%     99.72% # Writes before turning the bus around for reads
system.mem_ctrls1.wrPerTurnAround::44-45            1      0.01%     99.73% # Writes before turning the bus around for reads
system.mem_ctrls1.wrPerTurnAround::46-47            2      0.01%     99.74% # Writes before turning the bus around for reads
system.mem_ctrls1.wrPerTurnAround::48-49            9      0.07%     99.81% # Writes before turning the bus around for reads
system.mem_ctrls1.wrPerTurnAround::50-51            2      0.01%     99.82% # Writes before turning the bus around for reads
system.mem_ctrls1.wrPerTurnAround::52-53            2      0.01%     99.84% # Writes before turning the bus around for reads
system.mem_ctrls1.wrPerTurnAround::54-55            1      0.01%     99.85% # Writes before turning the bus around for reads
system.mem_ctrls1.wrPerTurnAround::56-57            7      0.05%     99.90% # Writes before turning the bus around for reads
system.mem_ctrls1.wrPerTurnAround::58-59            2      0.01%     99.91% # Writes before turning the bus around for reads
system.mem_ctrls1.wrPerTurnAround::60-61            2      0.01%     99.93% # Writes before turning the bus around for reads
system.mem_ctrls1.wrPerTurnAround::64-65            2      0.01%     99.94% # Writes before turning the bus around for reads
system.mem_ctrls1.wrPerTurnAround::66-67            3      0.02%     99.96% # Writes before turning the bus around for reads
system.mem_ctrls1.wrPerTurnAround::68-69            1      0.01%     99.97% # Writes before turning the bus around for reads
system.mem_ctrls1.wrPerTurnAround::70-71            1      0.01%     99.98% # Writes before turning the bus around for reads
system.mem_ctrls1.wrPerTurnAround::78-79            1      0.01%     99.99% # Writes before turning the bus around for reads
system.mem_ctrls1.wrPerTurnAround::90-91            1      0.01%     99.99% # Writes before turning the bus around for reads
system.mem_ctrls1.wrPerTurnAround::112-113            1      0.01%    100.00% # Writes before turning the bus around for reads
system.mem_ctrls1.wrPerTurnAround::total        13683                       # Writes before turning the bus around for reads
system.mem_ctrls1.totQLat                  9956034000                       # Total ticks spent queuing
system.mem_ctrls1.totMemAccLat            13592915250                       # Total ticks spent from burst creation until serviced by the DRAM
system.mem_ctrls1.totBusLat                 969835000                       # Total ticks spent in databus transfers
system.mem_ctrls1.avgQLat                    51328.49                       # Average queueing delay per DRAM burst
system.mem_ctrls1.avgBusLat                   5000.00                       # Average bus latency per DRAM burst
system.mem_ctrls1.avgMemAccLat               70078.49                       # Average memory access latency per DRAM burst
system.mem_ctrls1.avgRdBW                       27.28                       # Average DRAM read bandwidth in MiByte/s
system.mem_ctrls1.avgWrBW                       31.91                       # Average achieved write bandwidth in MiByte/s
system.mem_ctrls1.avgRdBWSys                    34.23                       # Average system read bandwidth in MiByte/s
system.mem_ctrls1.avgWrBWSys                    35.53                       # Average system write bandwidth in MiByte/s
system.mem_ctrls1.peakBW                     12800.00                       # Theoretical peak bandwidth in MiByte/s
system.mem_ctrls1.busUtil                        0.46                       # Data bus utilization in percentage
system.mem_ctrls1.busUtilRead                    0.21                       # Data bus utilization in percentage for reads
system.mem_ctrls1.busUtilWrite                   0.25                       # Data bus utilization in percentage for writes
system.mem_ctrls1.avgRdQLen                      1.00                       # Average read queue length when enqueuing
system.mem_ctrls1.avgWrQLen                     25.52                       # Average write queue length when enqueuing
system.mem_ctrls1.readRowHits                   84476                       # Number of row buffer hits during reads
system.mem_ctrls1.writeRowHits                 133181                       # Number of row buffer hits during writes
system.mem_ctrls1.readRowHitRate                43.55                       # Row buffer hit rate for reads
system.mem_ctrls1.writeRowHitRate               58.69                       # Row buffer hit rate for writes
system.mem_ctrls1.avgGap                    917222.00                       # Average gap between requests
system.mem_ctrls1.pageHitRate                   51.71                       # Row buffer hit rate, read and write combined
system.mem_ctrls1_0.actEnergy              2199848280                       # Energy for activate commands per rank (pJ)
system.mem_ctrls1_0.preEnergy              1169247090                       # Energy for precharge commands per rank (pJ)
system.mem_ctrls1_0.readEnergy             2198841540                       # Energy for read commands per rank (pJ)
system.mem_ctrls1_0.writeEnergy            1795116240                       # Energy for write commands per rank (pJ)
system.mem_ctrls1_0.refreshEnergy        47106624240.000008                       # Energy for refresh commands per rank (pJ)
system.mem_ctrls1_0.actBackEnergy         27576500820                       # Energy for active background per rank (pJ)
system.mem_ctrls1_0.preBackEnergy          1939484160                       # Energy for precharge background per rank (pJ)
system.mem_ctrls1_0.actPowerDownEnergy   155982468210                       # Energy for active power-down per rank (pJ)
system.mem_ctrls1_0.prePowerDownEnergy    50809290240                       # Energy for precharge power-down per rank (pJ)
system.mem_ctrls1_0.selfRefreshEnergy    1272631465755                       # Energy for self refresh per rank (pJ)
system.mem_ctrls1_0.totalEnergy          1563420122505                       # Total energy per rank (pJ)
system.mem_ctrls1_0.averagePower           268.421859                       # Core power per rank (mW)
system.mem_ctrls1_0.totalIdleTime        424120185000                       # Total Idle time Per DRAM Rank
system.mem_ctrls1_0.memoryStateTime::IDLE   2067748750                       # Time in different power states
system.mem_ctrls1_0.memoryStateTime::REF   9781112000                       # Time in different power states
system.mem_ctrls1_0.memoryStateTime::SREF 198616906000                       # Time in different power states
system.mem_ctrls1_0.memoryStateTime::PRE_PDN  71610049750                       # Time in different power states
system.mem_ctrls1_0.memoryStateTime::ACT  19048677750                       # Time in different power states
system.mem_ctrls1_0.memoryStateTime::ACT_PDN 153974706750                       # Time in different power states
system.mem_ctrls1_1.actEnergy              1440102300                       # Energy for activate commands per rank (pJ)
system.mem_ctrls1_1.preEnergy               765432525                       # Energy for precharge commands per rank (pJ)
system.mem_ctrls1_1.readEnergy             1429499400                       # Energy for read commands per rank (pJ)
system.mem_ctrls1_1.writeEnergy            1173643920                       # Energy for write commands per rank (pJ)
system.mem_ctrls1_1.refreshEnergy        50080867200.000008                       # Energy for refresh commands per rank (pJ)
system.mem_ctrls1_1.actBackEnergy         31511524320                       # Energy for active background per rank (pJ)
system.mem_ctrls1_1.preBackEnergy          2289216480                       # Energy for precharge background per rank (pJ)
system.mem_ctrls1_1.actPowerDownEnergy   133051069530                       # Energy for active power-down per rank (pJ)
system.mem_ctrls1_1.prePowerDownEnergy    70069147680                       # Energy for precharge power-down per rank (pJ)
system.mem_ctrls1_1.selfRefreshEnergy    1272530178720                       # Energy for self refresh per rank (pJ)
system.mem_ctrls1_1.totalEnergy          1564365450975                       # Total energy per rank (pJ)
system.mem_ctrls1_1.averagePower           268.584161                       # Core power per rank (mW)
system.mem_ctrls1_1.totalIdleTime        421551086500                       # Total Idle time Per DRAM Rank
system.mem_ctrls1_1.memoryStateTime::IDLE   2321796250                       # Time in different power states
system.mem_ctrls1_1.memoryStateTime::REF  10785410000                       # Time in different power states
system.mem_ctrls1_1.memoryStateTime::SREF 185243626750                       # Time in different power states
system.mem_ctrls1_1.memoryStateTime::PRE_PDN  93640381000                       # Time in different power states
system.mem_ctrls1_1.memoryStateTime::ACT  20355521750                       # Time in different power states
system.mem_ctrls1_1.memoryStateTime::ACT_PDN 142752575250                       # Time in different power states
system.mem_ctrls2.pwrStateResidencyTicks::UNDEFINED 5824488833000                       # Cumulative time (in ticks) in various power states
system.mem_ctrls2.bytes_read::ruby.dir_cntrl2     15406080                       # Number of bytes read from this memory
system.mem_ctrls2.bytes_read::total          15406080                       # Number of bytes read from this memory
system.mem_ctrls2.bytes_written::ruby.dir_cntrl2     15996800                       # Number of bytes written to this memory
system.mem_ctrls2.bytes_written::total       15996800                       # Number of bytes written to this memory
system.mem_ctrls2.num_reads::ruby.dir_cntrl2       240720                       # Number of read requests responded to by this memory
system.mem_ctrls2.num_reads::total             240720                       # Number of read requests responded to by this memory
system.mem_ctrls2.num_writes::ruby.dir_cntrl2       249950                       # Number of write requests responded to by this memory
system.mem_ctrls2.num_writes::total            249950                       # Number of write requests responded to by this memory
system.mem_ctrls2.bw_read::ruby.dir_cntrl2     33852142                       # Total read bandwidth from this memory (bytes/s)
system.mem_ctrls2.bw_read::total             33852142                       # Total read bandwidth from this memory (bytes/s)
system.mem_ctrls2.bw_write::ruby.dir_cntrl2     35150145                       # Write bandwidth from this memory (bytes/s)
system.mem_ctrls2.bw_write::total            35150145                       # Write bandwidth from this memory (bytes/s)
system.mem_ctrls2.bw_total::ruby.dir_cntrl2     69002287                       # Total bandwidth to/from this memory (bytes/s)
system.mem_ctrls2.bw_total::total            69002287                       # Total bandwidth to/from this memory (bytes/s)
system.mem_ctrls2.readReqs                     240720                       # Number of read requests accepted
system.mem_ctrls2.writeReqs                    249950                       # Number of write requests accepted
system.mem_ctrls2.readBursts                   240720                       # Number of DRAM read bursts, including those serviced by the write queue
system.mem_ctrls2.writeBursts                  249950                       # Number of DRAM write bursts, including those merged in the write queue
system.mem_ctrls2.bytesReadDRAM              12341440                       # Total number of bytes read from DRAM
system.mem_ctrls2.bytesReadWrQ                3064640                       # Total number of bytes read from write queue
system.mem_ctrls2.bytesWritten               14492928                       # Total number of bytes written to DRAM
system.mem_ctrls2.bytesReadSys               15406080                       # Total read bytes from the system interface side
system.mem_ctrls2.bytesWrittenSys            15996800                       # Total written bytes from the system interface side
system.mem_ctrls2.servicedByWrQ                 47885                       # Number of DRAM read bursts serviced by the write queue
system.mem_ctrls2.mergedWrBursts                23509                       # Number of DRAM write bursts merged with an existing one
system.mem_ctrls2.neitherReadNorWriteReqs            0                       # Number of requests that are neither read nor write
system.mem_ctrls2.perBankRdBursts::0            11637                       # Per bank write bursts
system.mem_ctrls2.perBankRdBursts::1            12843                       # Per bank write bursts
system.mem_ctrls2.perBankRdBursts::2            12167                       # Per bank write bursts
system.mem_ctrls2.perBankRdBursts::3            10784                       # Per bank write bursts
system.mem_ctrls2.perBankRdBursts::4            14962                       # Per bank write bursts
system.mem_ctrls2.perBankRdBursts::5            21054                       # Per bank write bursts
system.mem_ctrls2.perBankRdBursts::6            13397                       # Per bank write bursts
system.mem_ctrls2.perBankRdBursts::7            16169                       # Per bank write bursts
system.mem_ctrls2.perBankRdBursts::8             7081                       # Per bank write bursts
system.mem_ctrls2.perBankRdBursts::9             8537                       # Per bank write bursts
system.mem_ctrls2.perBankRdBursts::10            7589                       # Per bank write bursts
system.mem_ctrls2.perBankRdBursts::11            5525                       # Per bank write bursts
system.mem_ctrls2.perBankRdBursts::12            6994                       # Per bank write bursts
system.mem_ctrls2.perBankRdBursts::13           17147                       # Per bank write bursts
system.mem_ctrls2.perBankRdBursts::14           13950                       # Per bank write bursts
system.mem_ctrls2.perBankRdBursts::15           12999                       # Per bank write bursts
system.mem_ctrls2.perBankWrBursts::0            13752                       # Per bank write bursts
system.mem_ctrls2.perBankWrBursts::1            16900                       # Per bank write bursts
system.mem_ctrls2.perBankWrBursts::2            13913                       # Per bank write bursts
system.mem_ctrls2.perBankWrBursts::3            12518                       # Per bank write bursts
system.mem_ctrls2.perBankWrBursts::4            16975                       # Per bank write bursts
[...]
system.ruby.RMW_Read.Directory.miss_type_mach_latency_hist_seqr::mean   185.397112                      
system.ruby.RMW_Read.Directory.miss_type_mach_latency_hist_seqr::gmean   106.122873                      
system.ruby.RMW_Read.Directory.miss_type_mach_latency_hist_seqr::stdev   285.543943                      
system.ruby.RMW_Read.Directory.miss_type_mach_latency_hist_seqr |       26786     88.72%     88.72% |        1112      3.68%     92.40% |         218      0.72%     93.12% |           9      0.03%     93.15% |        1984      6.57%     99.72% |          83      0.27%    100.00% |           1      0.00%    100.00% |           0      0.00%    100.00% |           0      0.00%    100.00% |           0      0.00%    100.00%
system.ruby.RMW_Read.Directory.miss_type_mach_latency_hist_seqr::total        30193                      
system.ruby.Locked_RMW_Read.Directory.miss_type_mach_latency_hist_seqr::bucket_size          128                      
system.ruby.Locked_RMW_Read.Directory.miss_type_mach_latency_hist_seqr::max_bucket         1279                      
system.ruby.Locked_RMW_Read.Directory.miss_type_mach_latency_hist_seqr::samples          157                      
system.ruby.Locked_RMW_Read.Directory.miss_type_mach_latency_hist_seqr::mean   145.356688                      
system.ruby.Locked_RMW_Read.Directory.miss_type_mach_latency_hist_seqr::gmean   112.007778                      
system.ruby.Locked_RMW_Read.Directory.miss_type_mach_latency_hist_seqr::stdev   160.664845                      
system.ruby.Locked_RMW_Read.Directory.miss_type_mach_latency_hist_seqr |          50     31.85%     31.85% |          96     61.15%     92.99% |           6      3.82%     96.82% |           2      1.27%     98.09% |           0      0.00%     98.09% |           0      0.00%     98.09% |           0      0.00%     98.09% |           0      0.00%     98.09% |           0      0.00%     98.09% |           3      1.91%    100.00%
system.ruby.Locked_RMW_Read.Directory.miss_type_mach_latency_hist_seqr::total          157                      
system.ruby.Directory_Controller.GETX    |      272426     14.13%     14.13% |      243419     12.62%     26.75% |      240720     12.48%     39.23% |      228808     11.87%     51.10% |      218598     11.34%     62.43% |      246713     12.79%     75.23% |      227598     11.80%     87.03% |      250107     12.97%    100.00%
system.ruby.Directory_Controller.GETX::total      1928389                      
system.ruby.Directory_Controller.PUTX    |      272426     14.13%     14.13% |      243419     12.62%     26.75% |      240720     12.48%     39.23% |      228808     11.87%     51.10% |      218598     11.34%     62.43% |      246713     12.79%     75.23% |      227598     11.80%     87.03% |      250107     12.97%    100.00%
system.ruby.Directory_Controller.PUTX::total      1928389                      
system.ruby.Directory_Controller.DMA_READ |         369    100.00%    100.00% |           0      0.00%    100.00% |           0      0.00%    100.00% |           0      0.00%    100.00% |           0      0.00%    100.00% |           0      0.00%    100.00% |           0      0.00%    100.00% |           0      0.00%    100.00%
system.ruby.Directory_Controller.DMA_READ::total          369                      
system.ruby.Directory_Controller.DMA_WRITE |        9232     12.50%     12.50% |        9232     12.50%     25.00% |        9232     12.50%     37.50% |        9232     12.50%     50.00% |        9232     12.50%     62.50% |        9232     12.50%     75.00% |        9232     12.50%     87.50% |        9232     12.50%    100.00%
system.ruby.Directory_Controller.DMA_WRITE::total        73856                      
system.ruby.Directory_Controller.Memory_Data |      272547     14.13%     14.13% |      243419     12.62%     26.75% |      240720     12.48%     39.24% |      228808     11.86%     51.10% |      218598     11.34%     62.44% |      246713     12.79%     75.23% |      227598     11.80%     87.03% |      250107     12.97%    100.00%
system.ruby.Directory_Controller.Memory_Data::total      1928510                      
system.ruby.Directory_Controller.Memory_Ack |      281653     14.07%     14.07% |      252646     12.62%     26.69% |      249950     12.48%     39.17% |      238037     11.89%     51.06% |      227826     11.38%     62.44% |      255943     12.78%     75.22% |      236827     11.83%     87.05% |      259333     12.95%    100.00%
system.ruby.Directory_Controller.Memory_Ack::total      2002215                      
system.ruby.Directory_Controller.I.GETX  |      272426     14.13%     14.13% |      243419     12.62%     26.75% |      240720     12.48%     39.23% |      228808     11.87%     51.10% |      218598     11.34%     62.43% |      246713     12.79%     75.23% |      227598     11.80%     87.03% |      250107     12.97%    100.00%
system.ruby.Directory_Controller.I.GETX::total      1928389                      
system.ruby.Directory_Controller.I.DMA_READ |         121    100.00%    100.00% |           0      0.00%    100.00% |           0      0.00%    100.00% |           0      0.00%    100.00% |           0      0.00%    100.00% |           0      0.00%    100.00% |           0      0.00%    100.00% |           0      0.00%    100.00%
system.ruby.Directory_Controller.I.DMA_READ::total          121                      
system.ruby.Directory_Controller.I.DMA_WRITE |        9227     12.50%     12.50% |        9227     12.50%     25.00% |        9230     12.50%     37.50% |        9229     12.50%     50.00% |        9228     12.50%     62.50% |        9230     12.50%     75.00% |        9229     12.50%     87.50% |        9226     12.50%    100.00%
system.ruby.Directory_Controller.I.DMA_WRITE::total        73826                      
system.ruby.Directory_Controller.M.PUTX  |      272173     14.12%     14.12% |      243414     12.62%     26.74% |      240718     12.48%     39.23% |      228805     11.87%     51.09% |      218594     11.34%     62.43% |      246711     12.80%     75.22% |      227595     11.80%     87.03% |      250101     12.97%    100.00%
system.ruby.Directory_Controller.M.PUTX::total      1928111                      
system.ruby.Directory_Controller.M.DMA_READ |         248    100.00%    100.00% |           0      0.00%    100.00% |           0      0.00%    100.00% |           0      0.00%    100.00% |           0      0.00%    100.00% |           0      0.00%    100.00% |           0      0.00%    100.00% |           0      0.00%    100.00%
system.ruby.Directory_Controller.M.DMA_READ::total          248                      
system.ruby.Directory_Controller.M.DMA_WRITE |           5     16.67%     16.67% |           5     16.67%     33.33% |           2      6.67%     40.00% |           3     10.00%     50.00% |           4     13.33%     63.33% |           2      6.67%     70.00% |           3     10.00%     80.00% |           6     20.00%    100.00%
system.ruby.Directory_Controller.M.DMA_WRITE::total           30                      
system.ruby.Directory_Controller.M_DRD.PUTX |         248    100.00%    100.00% |           0      0.00%    100.00% |           0      0.00%    100.00% |           0      0.00%    100.00% |           0      0.00%    100.00% |           0      0.00%    100.00% |           0      0.00%    100.00% |           0      0.00%    100.00%
system.ruby.Directory_Controller.M_DRD.PUTX::total          248                      
system.ruby.Directory_Controller.M_DWR.PUTX |           5     16.67%     16.67% |           5     16.67%     33.33% |           2      6.67%     40.00% |           3     10.00%     50.00% |           4     13.33%     63.33% |           2      6.67%     70.00% |           3     10.00%     80.00% |           6     20.00%    100.00%
system.ruby.Directory_Controller.M_DWR.PUTX::total           30                      
system.ruby.Directory_Controller.M_DWRI.Memory_Ack |           5     16.67%     16.67% |           5     16.67%     33.33% |           2      6.67%     40.00% |           3     10.00%     50.00% |           4     13.33%     63.33% |           2      6.67%     70.00% |           3     10.00%     80.00% |           6     20.00%    100.00%
system.ruby.Directory_Controller.M_DWRI.Memory_Ack::total           30                      
system.ruby.Directory_Controller.M_DRDI.Memory_Ack |         248    100.00%    100.00% |           0      0.00%    100.00% |           0      0.00%    100.00% |           0      0.00%    100.00% |           0      0.00%    100.00% |           0      0.00%    100.00% |           0      0.00%    100.00% |           0      0.00%    100.00%
system.ruby.Directory_Controller.M_DRDI.Memory_Ack::total          248                      
system.ruby.Directory_Controller.IM.Memory_Data |      272426     14.13%     14.13% |      243419     12.62%     26.75% |      240720     12.48%     39.23% |      228808     11.87%     51.10% |      218598     11.34%     62.43% |      246713     12.79%     75.23% |      227598     11.80%     87.03% |      250107     12.97%    100.00%
system.ruby.Directory_Controller.IM.Memory_Data::total      1928389                      
system.ruby.Directory_Controller.MI.Memory_Ack |      272173     14.12%     14.12% |      243414     12.62%     26.74% |      240718     12.48%     39.23% |      228805     11.87%     51.09% |      218594     11.34%     62.43% |      246711     12.80%     75.22% |      227595     11.80%     87.03% |      250101     12.97%    100.00%
system.ruby.Directory_Controller.MI.Memory_Ack::total      1928111                      
system.ruby.Directory_Controller.ID.Memory_Data |         121    100.00%    100.00% |           0      0.00%    100.00% |           0      0.00%    100.00% |           0      0.00%    100.00% |           0      0.00%    100.00% |           0      0.00%    100.00% |           0      0.00%    100.00% |           0      0.00%    100.00%
system.ruby.Directory_Controller.ID.Memory_Data::total          121                      
system.ruby.Directory_Controller.ID_W.Memory_Ack |        9227     12.50%     12.50% |        9227     12.50%     25.00% |        9230     12.50%     37.50% |        9229     12.50%     50.00% |        9228     12.50%     62.50% |        9230     12.50%     75.00% |        9229     12.50%     87.50% |        9226     12.50%    100.00%
system.ruby.Directory_Controller.ID_W.Memory_Ack::total        73826                      
system.ruby.DMA_Controller.ReadRequest   |         369    100.00%    100.00% |           0      0.00%    100.00%
system.ruby.DMA_Controller.ReadRequest::total          369                      
system.ruby.DMA_Controller.WriteRequest  |       73856    100.00%    100.00% |           0      0.00%    100.00%
system.ruby.DMA_Controller.WriteRequest::total        73856                      
system.ruby.DMA_Controller.Data          |         369    100.00%    100.00% |           0      0.00%    100.00%
system.ruby.DMA_Controller.Data::total            369                      
system.ruby.DMA_Controller.Ack           |       73856    100.00%    100.00% |           0      0.00%    100.00%
system.ruby.DMA_Controller.Ack::total           73856                      
system.ruby.DMA_Controller.READY.ReadRequest |         369    100.00%    100.00% |           0      0.00%    100.00%
system.ruby.DMA_Controller.READY.ReadRequest::total          369                      
system.ruby.DMA_Controller.READY.WriteRequest |       73856    100.00%    100.00% |           0      0.00%    100.00%
system.ruby.DMA_Controller.READY.WriteRequest::total        73856                      
system.ruby.DMA_Controller.BUSY_RD.Data  |         369    100.00%    100.00% |           0      0.00%    100.00%
system.ruby.DMA_Controller.BUSY_RD.Data::total          369                      
system.ruby.DMA_Controller.BUSY_WR.Ack   |       73856    100.00%    100.00% |           0      0.00%    100.00%
system.ruby.DMA_Controller.BUSY_WR.Ack::total        73856                      
system.ruby.L1Cache_Controller.Load      |    37751891    100.00%    100.00% |           0      0.00%    100.00% |           0      0.00%    100.00% |           0      0.00%    100.00% |           0      0.00%    100.00% |           0      0.00%    100.00% |           0      0.00%    100.00% |           0      0.00%    100.00%
system.ruby.L1Cache_Controller.Load::total     37751891                      
system.ruby.L1Cache_Controller.Ifetch    |   214286157    100.00%    100.00% |           0      0.00%    100.00% |           0      0.00%    100.00% |           0      0.00%    100.00% |           0      0.00%    100.00% |           0      0.00%    100.00% |           0      0.00%    100.00% |           0      0.00%    100.00%
system.ruby.L1Cache_Controller.Ifetch::total    214286157                      
system.ruby.L1Cache_Controller.Store     |    25270108    100.00%    100.00% |           0      0.00%    100.00% |           0      0.00%    100.00% |           0      0.00%    100.00% |           0      0.00%    100.00% |           0      0.00%    100.00% |           0      0.00%    100.00% |           0      0.00%    100.00%
system.ruby.L1Cache_Controller.Store::total     25270108                      
system.ruby.L1Cache_Controller.Data      |     1928389    100.00%    100.00% |           0      0.00%    100.00% |           0      0.00%    100.00% |           0      0.00%    100.00% |           0      0.00%    100.00% |           0      0.00%    100.00% |           0      0.00%    100.00% |           0      0.00%    100.00%
system.ruby.L1Cache_Controller.Data::total      1928389                      
system.ruby.L1Cache_Controller.Inv       |         556    100.00%    100.00% |           0      0.00%    100.00% |           0      0.00%    100.00% |           0      0.00%    100.00% |           0      0.00%    100.00% |           0      0.00%    100.00% |           0      0.00%    100.00% |           0      0.00%    100.00%
system.ruby.L1Cache_Controller.Inv::total          556                      
system.ruby.L1Cache_Controller.Replacement |     1928111    100.00%    100.00% |           0      0.00%    100.00% |           0      0.00%    100.00% |           0      0.00%    100.00% |           0      0.00%    100.00% |           0      0.00%    100.00% |           0      0.00%    100.00% |           0      0.00%    100.00%
system.ruby.L1Cache_Controller.Replacement::total      1928111                      
system.ruby.L1Cache_Controller.Writeback_Ack |     1928389    100.00%    100.00% |           0      0.00%    100.00% |           0      0.00%    100.00% |           0      0.00%    100.00% |           0      0.00%    100.00% |           0      0.00%    100.00% |           0      0.00%    100.00% |           0      0.00%    100.00%
system.ruby.L1Cache_Controller.Writeback_Ack::total      1928389                      
system.ruby.L1Cache_Controller.I.Load    |      782653    100.00%    100.00% |           0      0.00%    100.00% |           0      0.00%    100.00% |           0      0.00%    100.00% |           0      0.00%    100.00% |           0      0.00%    100.00% |           0      0.00%    100.00% |           0      0.00%    100.00%
system.ruby.L1Cache_Controller.I.Load::total       782653                      
system.ruby.L1Cache_Controller.I.Ifetch  |      653222    100.00%    100.00% |           0      0.00%    100.00% |           0      0.00%    100.00% |           0      0.00%    100.00% |           0      0.00%    100.00% |           0      0.00%    100.00% |           0      0.00%    100.00% |           0      0.00%    100.00%
system.ruby.L1Cache_Controller.I.Ifetch::total       653222                      
system.ruby.L1Cache_Controller.I.Store   |      492514    100.00%    100.00% |           0      0.00%    100.00% |           0      0.00%    100.00% |           0      0.00%    100.00% |           0      0.00%    100.00% |           0      0.00%    100.00% |           0      0.00%    100.00% |           0      0.00%    100.00%
system.ruby.L1Cache_Controller.I.Store::total       492514                      
system.ruby.L1Cache_Controller.M.Load    |    36969238    100.00%    100.00% |           0      0.00%    100.00% |           0      0.00%    100.00% |           0      0.00%    100.00% |           0      0.00%    100.00% |           0      0.00%    100.00% |           0      0.00%    100.00% |           0      0.00%    100.00%
system.ruby.L1Cache_Controller.M.Load::total     36969238                      
system.ruby.L1Cache_Controller.M.Ifetch  |   213632935    100.00%    100.00% |           0      0.00%    100.00% |           0      0.00%    100.00% |           0      0.00%    100.00% |           0      0.00%    100.00% |           0      0.00%    100.00% |           0      0.00%    100.00% |           0      0.00%    100.00%
system.ruby.L1Cache_Controller.M.Ifetch::total    213632935                      
system.ruby.L1Cache_Controller.M.Store   |    24777594    100.00%    100.00% |           0      0.00%    100.00% |           0      0.00%    100.00% |           0      0.00%    100.00% |           0      0.00%    100.00% |           0      0.00%    100.00% |           0      0.00%    100.00% |           0      0.00%    100.00%
system.ruby.L1Cache_Controller.M.Store::total     24777594                      
system.ruby.L1Cache_Controller.M.Inv     |         278    100.00%    100.00% |           0      0.00%    100.00% |           0      0.00%    100.00% |           0      0.00%    100.00% |           0      0.00%    100.00% |           0      0.00%    100.00% |           0      0.00%    100.00% |           0      0.00%    100.00%
system.ruby.L1Cache_Controller.M.Inv::total          278                      
system.ruby.L1Cache_Controller.M.Replacement |     1928111    100.00%    100.00% |           0      0.00%    100.00% |           0      0.00%    100.00% |           0      0.00%    100.00% |           0      0.00%    100.00% |           0      0.00%    100.00% |           0      0.00%    100.00% |           0      0.00%    100.00%
system.ruby.L1Cache_Controller.M.Replacement::total      1928111                      
system.ruby.L1Cache_Controller.MI.Inv    |         278    100.00%    100.00% |           0      0.00%    100.00% |           0      0.00%    100.00% |           0      0.00%    100.00% |           0      0.00%    100.00% |           0      0.00%    100.00% |           0      0.00%    100.00% |           0      0.00%    100.00%
system.ruby.L1Cache_Controller.MI.Inv::total          278                      
system.ruby.L1Cache_Controller.MI.Writeback_Ack |     1928389    100.00%    100.00% |           0      0.00%    100.00% |           0      0.00%    100.00% |           0      0.00%    100.00% |           0      0.00%    100.00% |           0      0.00%    100.00% |           0      0.00%    100.00% |           0      0.00%    100.00%
system.ruby.L1Cache_Controller.MI.Writeback_Ack::total      1928389                      
system.ruby.L1Cache_Controller.IS.Data   |     1435875    100.00%    100.00% |           0      0.00%    100.00% |           0      0.00%    100.00% |           0      0.00%    100.00% |           0      0.00%    100.00% |           0      0.00%    100.00% |           0      0.00%    100.00% |           0      0.00%    100.00%
system.ruby.L1Cache_Controller.IS.Data::total      1435875                      
system.ruby.L1Cache_Controller.IM.Data   |      492514    100.00%    100.00% |           0      0.00%    100.00% |           0      0.00%    100.00% |           0      0.00%    100.00% |           0      0.00%    100.00% |           0      0.00%    100.00% |           0      0.00%    100.00% |           0      0.00%    100.00%
system.ruby.L1Cache_Controller.IM.Data::total       492514                      

---------- End Simulation Statistics   ----------
