
---------- Begin Simulation Statistics ----------
sim_seconds                                  1.307587                       # Number of seconds simulated
sim_ticks                                1307586782000                       # Number of ticks simulated
final_tick                               6676993984000                       # Number of ticks from beginning of simulation (restored from checkpoints and never reset)
sim_freq                                 1000000000000                       # Frequency of simulated ticks
host_inst_rate                                 564326                       # Simulator instruction rate (inst/s)
host_op_rate                                  1016427                       # Simulator op (including micro ops) rate (op/s)
host_tick_rate                             1478032864                       # Simulator tick rate (ticks/s)
host_mem_usage                                2146564                       # Number of bytes of host memory used
host_seconds                                   884.68                       # Real time elapsed on the host
sim_insts                                   499248453                       # Number of instructions simulated
sim_ops                                     899212994                       # Number of ops (including micro ops) simulated
system.voltage_domain.voltage                       1                       # Voltage in Volts
system.clk_domain.clock                          1000                       # Clock period in ticks
system.mem_ctrls0.pwrStateResidencyTicks::UNDEFINED 6676993984000                       # Cumulative time (in ticks) in various power states
system.mem_ctrls0.bytes_read::ruby.dir_cntrl0     75556160                       # Number of bytes read from this memory
system.mem_ctrls0.bytes_read::total          75556160                       # Number of bytes read from this memory
system.mem_ctrls0.bytes_written::ruby.dir_cntrl0     76201664                       # Number of bytes written to this memory
system.mem_ctrls0.bytes_written::total       76201664                       # Number of bytes written to this memory
system.mem_ctrls0.num_reads::ruby.dir_cntrl0      1180565                       # Number of read requests responded to by this memory
system.mem_ctrls0.num_reads::total            1180565                       # Number of read requests responded to by this memory
system.mem_ctrls0.num_writes::ruby.dir_cntrl0      1190651                       # Number of write requests responded to by this memory
system.mem_ctrls0.num_writes::total           1190651                       # Number of write requests responded to by this memory
system.mem_ctrls0.bw_read::ruby.dir_cntrl0     57782903                       # Total read bandwidth from this memory (bytes/s)
system.mem_ctrls0.bw_read::total             57782903                       # Total read bandwidth from this memory (bytes/s)
system.mem_ctrls0.bw_write::ruby.dir_cntrl0     58276563                       # Write bandwidth from this memory (bytes/s)
system.mem_ctrls0.bw_write::total            58276563                       # Write bandwidth from this memory (bytes/s)
system.mem_ctrls0.bw_total::ruby.dir_cntrl0    116059466                       # Total bandwidth to/from this memory (bytes/s)
system.mem_ctrls0.bw_total::total           116059466                       # Total bandwidth to/from this memory (bytes/s)
system.mem_ctrls0.readReqs                    1180565                       # Number of read requests accepted
system.mem_ctrls0.writeReqs                   1190651                       # Number of write requests accepted
system.mem_ctrls0.readBursts                  1180565                       # Number of DRAM read bursts, including those serviced by the write queue
system.mem_ctrls0.writeBursts                 1190651                       # Number of DRAM write bursts, including those merged in the write queue
system.mem_ctrls0.bytesReadDRAM              57539968                       # Total number of bytes read from DRAM
system.mem_ctrls0.bytesReadWrQ               18016192                       # Total number of bytes read from write queue
system.mem_ctrls0.bytesWritten               70545216                       # Total number of bytes written to DRAM
system.mem_ctrls0.bytesReadSys               75556160                       # Total read bytes from the system interface side
system.mem_ctrls0.bytesWrittenSys            76201664                       # Total written bytes from the system interface side
system.mem_ctrls0.servicedByWrQ                281503                       # Number of DRAM read bursts serviced by the write queue
system.mem_ctrls0.mergedWrBursts                88391                       # Number of DRAM write bursts merged with an existing one
system.mem_ctrls0.neitherReadNorWriteReqs            0                       # Number of requests that are neither read nor write
system.mem_ctrls0.perBankRdBursts::0            63301                       # Per bank write bursts
system.mem_ctrls0.perBankRdBursts::1            46065                       # Per bank write bursts
system.mem_ctrls0.perBankRdBursts::2            53333                       # Per bank write bursts
system.mem_ctrls0.perBankRdBursts::3            48927                       # Per bank write bursts
system.mem_ctrls0.perBankRdBursts::4            54418                       # Per bank write bursts
system.mem_ctrls0.perBankRdBursts::5            53613                       # Per bank write bursts
system.mem_ctrls0.perBankRdBursts::6            64725                       # Per bank write bursts
system.mem_ctrls0.perBankRdBursts::7            39841                       # Per bank write bursts
system.mem_ctrls0.perBankRdBursts::8            79080                       # Per bank write bursts
system.mem_ctrls0.perBankRdBursts::9            43482                       # Per bank write bursts
system.mem_ctrls0.perBankRdBursts::10           43002                       # Per bank write bursts
system.mem_ctrls0.perBankRdBursts::11           40465                       # Per bank write bursts
system.mem_ctrls0.perBankRdBursts::12           92412                       # Per bank write bursts
system.mem_ctrls0.perBankRdBursts::13           76962                       # Per bank write bursts
system.mem_ctrls0.perBankRdBursts::14           39253                       # Per bank write bursts
system.mem_ctrls0.perBankRdBursts::15           60183                       # Per bank write bursts
system.mem_ctrls0.perBankWrBursts::0            76913                       # Per bank write bursts
system.mem_ctrls0.perBankWrBursts::1            55236                       # Per bank write bursts
system.mem_ctrls0.perBankWrBursts::2            66999                       # Per bank write bursts
system.mem_ctrls0.perBankWrBursts::3            65332                       # Per bank write bursts
system.mem_ctrls0.perBankWrBursts::4            69284                       # Per bank write bursts
system.mem_ctrls0.perBankWrBursts::5            67533                       # Per bank write bursts
system.mem_ctrls0.perBankWrBursts::6            86000                       # Per bank write bursts
system.mem_ctrls0.perBankWrBursts::7            51769                       # Per bank write bursts
system.mem_ctrls0.perBankWrBursts::8            95562                       # Per bank write bursts
system.mem_ctrls0.perBankWrBursts::9            49397                       # Per bank write bursts
system.mem_ctrls0.perBankWrBursts::10           52730                       # Per bank write bursts
system.mem_ctrls0.perBankWrBursts::11           46320                       # Per bank write bursts
system.mem_ctrls0.perBankWrBursts::12          103568                       # Per bank write bursts
system.mem_ctrls0.perBankWrBursts::13           89806                       # Per bank write bursts
system.mem_ctrls0.perBankWrBursts::14           51247                       # Per bank write bursts
system.mem_ctrls0.perBankWrBursts::15           74573                       # Per bank write bursts
system.mem_ctrls0.numRdRetry                        0                       # Number of times read queue was full causing retry
system.mem_ctrls0.numWrRetry                        0                       # Number of times write queue was full causing retry
system.mem_ctrls0.totGap                 1307587414500                       # Total gap between requests
system.mem_ctrls0.readPktSize::0                    0                       # Read request sizes (log2)
system.mem_ctrls0.readPktSize::1                    0                       # Read request sizes (log2)
system.mem_ctrls0.readPktSize::2                    0                       # Read request sizes (log2)
system.mem_ctrls0.readPktSize::3                    0                       # Read request sizes (log2)
system.mem_ctrls0.readPktSize::4                    0                       # Read request sizes (log2)
system.mem_ctrls0.readPktSize::5                    0                       # Read request sizes (log2)
system.mem_ctrls0.readPktSize::6              1180565                       # Read request sizes (log2)
system.mem_ctrls0.writePktSize::0                   0                       # Write request sizes (log2)
system.mem_ctrls0.writePktSize::1                   0                       # Write request sizes (log2)
system.mem_ctrls0.writePktSize::2                   0                       # Write request sizes (log2)
system.mem_ctrls0.writePktSize::3                   0                       # Write request sizes (log2)
system.mem_ctrls0.writePktSize::4                   0                       # Write request sizes (log2)
system.mem_ctrls0.writePktSize::5                   0                       # Write request sizes (log2)
system.mem_ctrls0.writePktSize::6             1190651                       # Write request sizes (log2)
system.mem_ctrls0.rdQLenPdf::0                 899043                       # What read queue length does an incoming req see
system.mem_ctrls0.rdQLenPdf::1                     19                       # What read queue length does an incoming req see
system.mem_ctrls0.rdQLenPdf::2                      0                       # What read queue length does an incoming req see
system.mem_ctrls0.rdQLenPdf::3                      0                       # What read queue length does an incoming req see
system.mem_ctrls0.rdQLenPdf::4                      0                       # What read queue length does an incoming req see
system.mem_ctrls0.rdQLenPdf::5                      0                       # What read queue length does an incoming req see
system.mem_ctrls0.rdQLenPdf::6                      0                       # What read queue length does an incoming req see
system.mem_ctrls0.rdQLenPdf::7                      0                       # What read queue length does an incoming req see
system.mem_ctrls0.rdQLenPdf::8                      0                       # What read queue length does an incoming req see
system.mem_ctrls0.rdQLenPdf::9                      0                       # What read queue length does an incoming req see
system.mem_ctrls0.rdQLenPdf::10                     0                       # What read queue length does an incoming req see
system.mem_ctrls0.rdQLenPdf::11                     0                       # What read queue length does an incoming req see
system.mem_ctrls0.rdQLenPdf::12                     0                       # What read queue length does an incoming req see
system.mem_ctrls0.rdQLenPdf::13                     0                       # What read queue length does an incoming req see
system.mem_ctrls0.rdQLenPdf::14                     0                       # What read queue length does an incoming req see
system.mem_ctrls0.rdQLenPdf::15                     0                       # What read queue length does an incoming req see
system.mem_ctrls0.rdQLenPdf::16                     0                       # What read queue length does an incoming req see
system.mem_ctrls0.rdQLenPdf::17                     0                       # What read queue length does an incoming req see
system.mem_ctrls0.rdQLenPdf::18                     0                       # What read queue length does an incoming req see
system.mem_ctrls0.rdQLenPdf::19                     0                       # What read queue length does an incoming req see
system.mem_ctrls0.rdQLenPdf::20                     0                       # What read queue length does an incoming req see
system.mem_ctrls0.rdQLenPdf::21                     0                       # What read queue length does an incoming req see
system.mem_ctrls0.rdQLenPdf::22                     0                       # What read queue length does an incoming req see
system.mem_ctrls0.rdQLenPdf::23                     0                       # What read queue length does an incoming req see
system.mem_ctrls0.rdQLenPdf::24                     0                       # What read queue length does an incoming req see
system.mem_ctrls0.rdQLenPdf::25                     0                       # What read queue length does an incoming req see
system.mem_ctrls0.rdQLenPdf::26                     0                       # What read queue length does an incoming req see
system.mem_ctrls0.rdQLenPdf::27                     0                       # What read queue length does an incoming req see
system.mem_ctrls0.rdQLenPdf::28                     0                       # What read queue length does an incoming req see
system.mem_ctrls0.rdQLenPdf::29                     0                       # What read queue length does an incoming req see
system.mem_ctrls0.rdQLenPdf::30                     0                       # What read queue length does an incoming req see
system.mem_ctrls0.rdQLenPdf::31                     0                       # What read queue length does an incoming req see
system.mem_ctrls0.wrQLenPdf::0                      0                       # What write queue length does an incoming req see
system.mem_ctrls0.wrQLenPdf::1                      0                       # What write queue length does an incoming req see
system.mem_ctrls0.wrQLenPdf::2                      0                       # What write queue length does an incoming req see
system.mem_ctrls0.wrQLenPdf::3                      0                       # What write queue length does an incoming req see
system.mem_ctrls0.wrQLenPdf::4                      0                       # What write queue length does an incoming req see
system.mem_ctrls0.wrQLenPdf::5                      0                       # What write queue length does an incoming req see
system.mem_ctrls0.wrQLenPdf::6                      0                       # What write queue length does an incoming req see
system.mem_ctrls0.wrQLenPdf::7                      0                       # What write queue length does an incoming req see
system.mem_ctrls0.wrQLenPdf::8                      0                       # What write queue length does an incoming req see
system.mem_ctrls0.wrQLenPdf::9                      0                       # What write queue length does an incoming req see
system.mem_ctrls0.wrQLenPdf::10                     0                       # What write queue length does an incoming req see
system.mem_ctrls0.wrQLenPdf::11                     0                       # What write queue length does an incoming req see
system.mem_ctrls0.wrQLenPdf::12                     0                       # What write queue length does an incoming req see
system.mem_ctrls0.wrQLenPdf::13                     0                       # What write queue length does an incoming req see
system.mem_ctrls0.wrQLenPdf::14                     0                       # What write queue length does an incoming req see
system.mem_ctrls0.wrQLenPdf::15                 12739                       # What write queue length does an incoming req see
system.mem_ctrls0.wrQLenPdf::16                 13110                       # What write queue length does an incoming req see
system.mem_ctrls0.wrQLenPdf::17                 65982                       # What write queue length does an incoming req see
system.mem_ctrls0.wrQLenPdf::18                 67091                       # What write queue length does an incoming req see
system.mem_ctrls0.wrQLenPdf::19                 67312                       # What write queue length does an incoming req see
system.mem_ctrls0.wrQLenPdf::20                 67373                       # What write queue length does an incoming req see
system.mem_ctrls0.wrQLenPdf::21                 67433                       # What write queue length does an incoming req see
system.mem_ctrls0.wrQLenPdf::22                 67447                       # What write queue length does an incoming req see
system.mem_ctrls0.wrQLenPdf::23                 67467                       # What write queue length does an incoming req see
system.mem_ctrls0.wrQLenPdf::24                 67596                       # What write queue length does an incoming req see
system.mem_ctrls0.wrQLenPdf::25                 67622                       # What write queue length does an incoming req see
system.mem_ctrls0.wrQLenPdf::26                 67597                       # What write queue length does an incoming req see
system.mem_ctrls0.wrQLenPdf::27                 67543                       # What write queue length does an incoming req see
system.mem_ctrls0.wrQLenPdf::28                 67297                       # What write queue length does an incoming req see
system.mem_ctrls0.wrQLenPdf::29                 67201                       # What write queue length does an incoming req see
system.mem_ctrls0.wrQLenPdf::30                 67095                       # What write queue length does an incoming req see
system.mem_ctrls0.wrQLenPdf::31                 67013                       # What write queue length does an incoming req see
system.mem_ctrls0.wrQLenPdf::32                 66985                       # What write queue length does an incoming req see
system.mem_ctrls0.wrQLenPdf::33                   105                       # What write queue length does an incoming req see
system.mem_ctrls0.wrQLenPdf::34                    39                       # What write queue length does an incoming req see
system.mem_ctrls0.wrQLenPdf::35                    29                       # What write queue length does an incoming req see
system.mem_ctrls0.wrQLenPdf::36                    18                       # What write queue length does an incoming req see
system.mem_ctrls0.wrQLenPdf::37                    15                       # What write queue length does an incoming req see
system.mem_ctrls0.wrQLenPdf::38                    15                       # What write queue length does an incoming req see
system.mem_ctrls0.wrQLenPdf::39                    12                       # What write queue length does an incoming req see
system.mem_ctrls0.wrQLenPdf::40                    12                       # What write queue length does an incoming req see
system.mem_ctrls0.wrQLenPdf::41                    12                       # What write queue length does an incoming req see
system.mem_ctrls0.wrQLenPdf::42                     9                       # What write queue length does an incoming req see
system.mem_ctrls0.wrQLenPdf::43                     9                       # What write queue length does an incoming req see
system.mem_ctrls0.wrQLenPdf::44                     8                       # What write queue length does an incoming req see
system.mem_ctrls0.wrQLenPdf::45                     8                       # What write queue length does an incoming req see
system.mem_ctrls0.wrQLenPdf::46                     7                       # What write queue length does an incoming req see
system.mem_ctrls0.wrQLenPdf::47                     6                       # What write queue length does an incoming req see
system.mem_ctrls0.wrQLenPdf::48                     4                       # What write queue length does an incoming req see
system.mem_ctrls0.wrQLenPdf::49                     4                       # What write queue length does an incoming req see
system.mem_ctrls0.wrQLenPdf::50                     3                       # What write queue length does an incoming req see
system.mem_ctrls0.wrQLenPdf::51                     3                       # What write queue length does an incoming req see
system.mem_ctrls0.wrQLenPdf::52                     3                       # What write queue length does an incoming req see
system.mem_ctrls0.wrQLenPdf::53                     4                       # What write queue length does an incoming req see
system.mem_ctrls0.wrQLenPdf::54                     4                       # What write queue length does an incoming req see
system.mem_ctrls0.wrQLenPdf::55                     3                       # What write queue length does an incoming req see
system.mem_ctrls0.wrQLenPdf::56                     3                       # What write queue length does an incoming req see
system.mem_ctrls0.wrQLenPdf::57                     6                       # What write queue length does an incoming req see
system.mem_ctrls0.wrQLenPdf::58                     5                       # What write queue length does an incoming req see
system.mem_ctrls0.wrQLenPdf::59                     3                       # What write queue length does an incoming req see
system.mem_ctrls0.wrQLenPdf::60                     2                       # What write queue length does an incoming req see
system.mem_ctrls0.wrQLenPdf::61                     2                       # What write queue length does an incoming req see
system.mem_ctrls0.wrQLenPdf::62                     4                       # What write queue length does an incoming req see
system.mem_ctrls0.wrQLenPdf::63                     0                       # What write queue length does an incoming req see
system.mem_ctrls0.bytesPerActivate::samples      1118667                       # Bytes accessed per row activation
system.mem_ctrls0.bytesPerActivate::mean   114.497930                       # Bytes accessed per row activation
system.mem_ctrls0.bytesPerActivate::gmean    94.852676                       # Bytes accessed per row activation
system.mem_ctrls0.bytesPerActivate::stdev    92.763729                       # Bytes accessed per row activation
system.mem_ctrls0.bytesPerActivate::0-127       680315     60.81%     60.81% # Bytes accessed per row activation
system.mem_ctrls0.bytesPerActivate::128-255       335250     29.97%     90.78% # Bytes accessed per row activation
system.mem_ctrls0.bytesPerActivate::256-383        73900      6.61%     97.39% # Bytes accessed per row activation
system.mem_ctrls0.bytesPerActivate::384-511        18180      1.63%     99.01% # Bytes accessed per row activation
system.mem_ctrls0.bytesPerActivate::512-639         5982      0.53%     99.55% # Bytes accessed per row activation
system.mem_ctrls0.bytesPerActivate::640-767         2007      0.18%     99.73% # Bytes accessed per row activation
system.mem_ctrls0.bytesPerActivate::768-895         1094      0.10%     99.83% # Bytes accessed per row activation
system.mem_ctrls0.bytesPerActivate::896-1023          776      0.07%     99.90% # Bytes accessed per row activation
system.mem_ctrls0.bytesPerActivate::1024-1151         1163      0.10%    100.00% # Bytes accessed per row activation
system.mem_ctrls0.bytesPerActivate::total      1118667                       # Bytes accessed per row activation
system.mem_ctrls0.rdPerTurnAround::samples        66956                       # Reads before turning the bus around for writes
system.mem_ctrls0.rdPerTurnAround::mean     13.427714                       # Reads before turning the bus around for writes
system.mem_ctrls0.rdPerTurnAround::stdev     2.255150                       # Reads before turning the bus around for writes
system.mem_ctrls0.rdPerTurnAround::0               87      0.13%      0.13% # Reads before turning the bus around for writes
system.mem_ctrls0.rdPerTurnAround::1               98      0.15%      0.28% # Reads before turning the bus around for writes
system.mem_ctrls0.rdPerTurnAround::2               50      0.07%      0.35% # Reads before turning the bus around for writes
system.mem_ctrls0.rdPerTurnAround::3               53      0.08%      0.43% # Reads before turning the bus around for writes
system.mem_ctrls0.rdPerTurnAround::4               47      0.07%      0.50% # Reads before turning the bus around for writes
system.mem_ctrls0.rdPerTurnAround::5               66      0.10%      0.60% # Reads before turning the bus around for writes
system.mem_ctrls0.rdPerTurnAround::6              162      0.24%      0.84% # Reads before turning the bus around for writes
system.mem_ctrls0.rdPerTurnAround::7              380      0.57%      1.41% # Reads before turning the bus around for writes
system.mem_ctrls0.rdPerTurnAround::8              753      1.12%      2.53% # Reads before turning the bus around for writes
system.mem_ctrls0.rdPerTurnAround::9             1522      2.27%      4.81% # Reads before turning the bus around for writes
system.mem_ctrls0.rdPerTurnAround::10            2937      4.39%      9.19% # Reads before turning the bus around for writes
system.mem_ctrls0.rdPerTurnAround::11            5372      8.02%     17.22% # Reads before turning the bus around for writes
system.mem_ctrls0.rdPerTurnAround::12            8220     12.28%     29.49% # Reads before turning the bus around for writes
system.mem_ctrls0.rdPerTurnAround::13           11024     16.46%     45.96% # Reads before turning the bus around for writes
system.mem_ctrls0.rdPerTurnAround::14           12706     18.98%     64.93% # Reads before turning the bus around for writes
system.mem_ctrls0.rdPerTurnAround::15           11410     17.04%     81.97% # Reads before turning the bus around for writes
system.mem_ctrls0.rdPerTurnAround::16           10079     15.05%     97.03% # Reads before turning the bus around for writes
system.mem_ctrls0.rdPerTurnAround::17            1730      2.58%     99.61% # Reads before turning the bus around for writes
system.mem_ctrls0.rdPerTurnAround::18             229      0.34%     99.95% # Reads before turning the bus around for writes
system.mem_ctrls0.rdPerTurnAround::19              27      0.04%     99.99% # Reads before turning the bus around for writes
system.mem_ctrls0.rdPerTurnAround::20               4      0.01%    100.00% # Reads before turning the bus around for writes
system.mem_ctrls0.rdPerTurnAround::total        66956                       # Reads before turning the bus around for writes
system.mem_ctrls0.wrPerTurnAround::samples        66956                       # Writes before turning the bus around for reads
system.mem_ctrls0.wrPerTurnAround::mean     16.462587                       # Writes before turning the bus around for reads
system.mem_ctrls0.wrPerTurnAround::gmean    16.419584                       # Writes before turning the bus around for reads
system.mem_ctrls0.wrPerTurnAround::stdev     1.486430                       # Writes before turning the bus around for reads
system.mem_ctrls0.wrPerTurnAround::16-17        54032     80.70%     80.70% # Writes before turning the bus around for reads
system.mem_ctrls0.wrPerTurnAround::18-19        12566     18.77%     99.47% # Writes before turning the bus around for reads
system.mem_ctrls0.wrPerTurnAround::20-21           95      0.14%     99.61% # Writes before turning the bus around for reads
system.mem_ctrls0.wrPerTurnAround::22-23           15      0.02%     99.63% # Writes before turning the bus around for reads
system.mem_ctrls0.wrPerTurnAround::24-25           21      0.03%     99.66% # Writes before turning the bus around for reads
system.mem_ctrls0.wrPerTurnAround::26-27           33      0.05%     99.71% # Writes before turning the bus around for reads
system.mem_ctrls0.wrPerTurnAround::28-29           30      0.04%     99.76% # Writes before turning the bus around for reads
system.mem_ctrls0.wrPerTurnAround::30-31           32      0.05%     99.80% # Writes before turning the bus around for reads
system.mem_ctrls0.wrPerTurnAround::32-33           46      0.07%     99.87% # Writes before turning the bus around for reads
system.mem_ctrls0.wrPerTurnAround::34-35           25      0.04%     99.91% # Writes before turning the bus around for reads
system.mem_ctrls0.wrPerTurnAround::36-37           10      0.01%     99.92% # Writes before turning the bus around for reads
system.mem_ctrls0.wrPerTurnAround::38-39            6      0.01%     99.93% # Writes before turning the bus around for reads
system.mem_ctrls0.wrPerTurnAround::40-41           11      0.02%     99.95% # Writes before turning the bus around for reads
system.mem_ctrls0.wrPerTurnAround::42-43            1      0.00%     99.95% # Writes before turning the bus around for reads
system.mem_ctrls0.wrPerTurnAround::44-45            1      0.00%     99.95% # Writes before turning the bus around for reads
system.mem_ctrls0.wrPerTurnAround::46-47            1      0.00%     99.95% # Writes before turning the bus around for reads
system.mem_ctrls0.wrPerTurnAround::48-49           11      0.02%     99.97% # Writes before turning the bus around for reads
system.mem_ctrls0.wrPerTurnAround::52-53            1      0.00%     99.97% # Writes before turning the bus around for reads
system.mem_ctrls0.wrPerTurnAround::54-55            5      0.01%     99.98% # Writes before turning the bus around for reads
system.mem_ctrls0.wrPerTurnAround::56-57            4      0.01%     99.99% # Writes before turning the bus around for reads
system.mem_ctrls0.wrPerTurnAround::58-59            3      0.00%     99.99% # Writes before turning the bus around for reads
system.mem_ctrls0.wrPerTurnAround::64-65            1      0.00%     99.99% # Writes before turning the bus around for reads
system.mem_ctrls0.wrPerTurnAround::66-67            3      0.00%    100.00% # Writes before turning the bus around for reads
system.mem_ctrls0.wrPerTurnAround::68-69            1      0.00%    100.00% # Writes before turning the bus around for reads
system.mem_ctrls0.wrPerTurnAround::74-75            1      0.00%    100.00% # Writes before turning the bus around for reads
system.mem_ctrls0.wrPerTurnAround::80-81            1      0.00%    100.00% # Writes before turning the bus around for reads
system.mem_ctrls0.wrPerTurnAround::total        66956                       # Writes before turning the bus around for reads
system.mem_ctrls0.totQLat                 36158065250                       # Total ticks spent queuing
system.mem_ctrls0.totMemAccLat            53015477750                       # Total ticks spent from burst creation until serviced by the DRAM
system.mem_ctrls0.totBusLat                4495310000                       # Total ticks spent in databus transfers
system.mem_ctrls0.avgQLat                    40217.54                       # Average queueing delay per DRAM burst
system.mem_ctrls0.avgBusLat                   5000.00                       # Average bus latency per DRAM burst
system.mem_ctrls0.avgMemAccLat               58967.54                       # Average memory access latency per DRAM burst
system.mem_ctrls0.avgRdBW                       44.00                       # Average DRAM read bandwidth in MiByte/s
system.mem_ctrls0.avgWrBW                       53.95                       # Average achieved write bandwidth in MiByte/s
system.mem_ctrls0.avgRdBWSys                    57.78                       # Average system read bandwidth in MiByte/s
system.mem_ctrls0.avgWrBWSys                    58.28                       # Average system write bandwidth in MiByte/s
system.mem_ctrls0.peakBW                     12800.00                       # Theoretical peak bandwidth in MiByte/s
system.mem_ctrls0.busUtil                        0.77                       # Data bus utilization in percentage
system.mem_ctrls0.busUtilRead                    0.34                       # Data bus utilization in percentage for reads
system.mem_ctrls0.busUtilWrite                   0.42                       # Data bus utilization in percentage for writes
system.mem_ctrls0.avgRdQLen                      1.00                       # Average read queue length when enqueuing
system.mem_ctrls0.avgWrQLen                     25.40                       # Average write queue length when enqueuing
system.mem_ctrls0.readRowHits                  340293                       # Number of row buffer hits during reads
system.mem_ctrls0.writeRowHits                 542371                       # Number of row buffer hits during writes
system.mem_ctrls0.readRowHitRate                37.85                       # Row buffer hit rate for reads
system.mem_ctrls0.writeRowHitRate               49.21                       # Row buffer hit rate for writes
system.mem_ctrls0.avgGap                    551441.71                       # Average gap between requests
system.mem_ctrls0.pageHitRate                   44.10                       # Row buffer hit rate, read and write combined
system.mem_ctrls0_0.actEnergy              5248556880                       # Energy for activate commands per rank (pJ)
system.mem_ctrls0_0.preEnergy              2789666550                       # Energy for precharge commands per rank (pJ)
system.mem_ctrls0_0.readEnergy             4482406320                       # Energy for read commands per rank (pJ)
system.mem_ctrls0_0.writeEnergy            3978396900                       # Energy for write commands per rank (pJ)
system.mem_ctrls0_0.refreshEnergy        118199574480.000031                       # Energy for refresh commands per rank (pJ)
system.mem_ctrls0_0.actBackEnergy         77384505300                       # Energy for active background per rank (pJ)
system.mem_ctrls0_0.preBackEnergy          4583992320                       # Energy for precharge background per rank (pJ)
system.mem_ctrls0_0.actPowerDownEnergy   360946792590                       # Energy for active power-down per rank (pJ)
system.mem_ctrls0_0.prePowerDownEnergy   145870438080                       # Energy for precharge power-down per rank (pJ)
system.mem_ctrls0_0.selfRefreshEnergy    1288747461765                       # Energy for self refresh per rank (pJ)
system.mem_ctrls0_0.totalEnergy          2012283805215                       # Total energy per rank (pJ)
system.mem_ctrls0_0.averagePower           301.375709                       # Core power per rank (mW)
system.mem_ctrls0_0.totalIdleTime        1161944341000                       # Total Idle time Per DRAM Rank
system.mem_ctrls0_0.memoryStateTime::IDLE   5993802750                       # Time in different power states
system.mem_ctrls0_0.memoryStateTime::REF  39920386000                       # Time in different power states
system.mem_ctrls0_0.memoryStateTime::SREF 238846983500                       # Time in different power states
system.mem_ctrls0_0.memoryStateTime::PRE_PDN 320570564250                       # Time in different power states
system.mem_ctrls0_0.memoryStateTime::ACT  99728662000                       # Time in different power states
system.mem_ctrls0_0.memoryStateTime::ACT_PDN 602527159500                       # Time in different power states
system.mem_ctrls0_1.actEnergy              5005925400                       # Energy for activate commands per rank (pJ)
system.mem_ctrls0_1.preEnergy              2660708655                       # Energy for precharge commands per rank (pJ)
system.mem_ctrls0_1.readEnergy             4345575360                       # Energy for read commands per rank (pJ)
system.mem_ctrls0_1.writeEnergy            3697519140                       # Energy for write commands per rank (pJ)
system.mem_ctrls0_1.refreshEnergy        120063162960.000031                       # Energy for refresh commands per rank (pJ)
system.mem_ctrls0_1.actBackEnergy         77083331550                       # Energy for active background per rank (pJ)
system.mem_ctrls0_1.preBackEnergy          4616307840                       # Energy for precharge background per rank (pJ)
system.mem_ctrls0_1.actPowerDownEnergy   364949804550                       # Energy for active power-down per rank (pJ)
system.mem_ctrls0_1.prePowerDownEnergy   150595986720                       # Energy for precharge power-down per rank (pJ)
system.mem_ctrls0_1.selfRefreshEnergy    1284064606935                       # Energy for self refresh per rank (pJ)
system.mem_ctrls0_1.totalEnergy          2017148202210                       # Total energy per rank (pJ)
system.mem_ctrls0_1.averagePower           302.104240                       # Core power per rank (mW)
system.mem_ctrls0_1.totalIdleTime        1169015133250                       # Total Idle time Per DRAM Rank
system.mem_ctrls0_1.memoryStateTime::IDLE   5477239750                       # Time in different power states
system.mem_ctrls0_1.memoryStateTime::REF  40502898000                       # Time in different power states
system.mem_ctrls0_1.memoryStateTime::SREF 215813751250                       # Time in different power states
system.mem_ctrls0_1.memoryStateTime::PRE_PDN 310303458750                       # Time in different power states
system.mem_ctrls0_1.memoryStateTime::ACT  92595066500                       # Time in different power states
system.mem_ctrls0_1.memoryStateTime::ACT_PDN 642897923250                       # Time in different power states
system.mem_ctrls1.pwrStateResidencyTicks::UNDEFINED 6676993984000                       # Cumulative time (in ticks) in various power states
system.mem_ctrls1.bytes_read::ruby.dir_cntrl1     71243200                       # Number of bytes read from this memory
system.mem_ctrls1.bytes_read::total          71243200                       # Number of bytes read from this memory
system.mem_ctrls1.bytes_written::ruby.dir_cntrl1     71896896                       # Number of bytes written to this memory
system.mem_ctrls1.bytes_written::total       71896896                       # Number of bytes written to this memory
system.mem_ctrls1.num_reads::ruby.dir_cntrl1      1113175                       # Number of read requests responded to by this memory
system.mem_ctrls1.num_reads::total            1113175                       # Number of read requests responded to by this memory
system.mem_ctrls1.num_writes::ruby.dir_cntrl1      1123389                       # Number of write requests responded to by this memory
system.mem_ctrls1.num_writes::total           1123389                       # Number of write requests responded to by this memory
system.mem_ctrls1.bw_read::ruby.dir_cntrl1     54484491                       # Total read bandwidth from this memory (bytes/s)
system.mem_ctrls1.bw_read::total             54484491                       # Total read bandwidth from this memory (bytes/s)
system.mem_ctrls1.bw_write::ruby.dir_cntrl1     54984416                       # Write bandwidth from this memory (bytes/s)
system.mem_ctrls1.bw_write::total            54984416                       # Write bandwidth from this memory (bytes/s)
system.mem_ctrls1.bw_total::ruby.dir_cntrl1    109468907                       # Total bandwidth to/from this memory (bytes/s)
system.mem_ctrls1.bw_total::total           109468907                       # Total bandwidth to/from this memory (bytes/s)
system.mem_ctrls1.readReqs                    1113175                       # Number of read requests accepted
system.mem_ctrls1.writeReqs                   1123389                       # Number of write requests accepted
system.mem_ctrls1.readBursts                  1113175                       # Number of DRAM read bursts, including those serviced by the write queue
system.mem_ctrls1.writeBursts                 1123389                       # Number of DRAM write bursts, including those merged in the write queue
system.mem_ctrls1.bytesReadDRAM              56499008                       # Total number of bytes read from DRAM
system.mem_ctrls1.bytesReadWrQ               14744192                       # Total number of bytes read from write queue
system.mem_ctrls1.bytesWritten               68138368                       # Total number of bytes written to DRAM
system.mem_ctrls1.bytesReadSys               71243200                       # Total read bytes from the system interface side
system.mem_ctrls1.bytesWrittenSys            71896896                       # Total written bytes from the system interface side
system.mem_ctrls1.servicedByWrQ                230378                       # Number of DRAM read bursts serviced by the write queue
system.mem_ctrls1.mergedWrBursts                58718                       # Number of DRAM write bursts merged with an existing one
system.mem_ctrls1.neitherReadNorWriteReqs            0                       # Number of requests that are neither read nor write
system.mem_ctrls1.perBankRdBursts::0            50628                       # Per bank write bursts
system.mem_ctrls1.perBankRdBursts::1            44645                       # Per bank write bursts
system.mem_ctrls1.perBankRdBursts::2            53110                       # Per bank write bursts
system.mem_ctrls1.perBankRdBursts::3            52993                       # Per bank write bursts
system.mem_ctrls1.perBankRdBursts::4            51837                       # Per bank write bursts
system.mem_ctrls1.perBankRdBursts::5            52123                       # Per bank write bursts
system.mem_ctrls1.perBankRdBursts::6            65626                       # Per bank write bursts
system.mem_ctrls1.perBankRdBursts::7            34444                       # Per bank write bursts
system.mem_ctrls1.perBankRdBursts::8            90356                       # Per bank write bursts
system.mem_ctrls1.perBankRdBursts::9            47548                       # Per bank write bursts
system.mem_ctrls1.perBankRdBursts::10           38821                       # Per bank write bursts
system.mem_ctrls1.perBankRdBursts::11           33833                       # Per bank write bursts
system.mem_ctrls1.perBankRdBursts::12          102537                       # Per bank write bursts
system.mem_ctrls1.perBankRdBursts::13           73180                       # Per bank write bursts
system.mem_ctrls1.perBankRdBursts::14           38260                       # Per bank write bursts
system.mem_ctrls1.perBankRdBursts::15           52856                       # Per bank write bursts
system.mem_ctrls1.perBankWrBursts::0            66382                       # Per bank write bursts
system.mem_ctrls1.perBankWrBursts::1            53105                       # Per bank write bursts
system.mem_ctrls1.perBankWrBursts::2            63324                       # Per bank write bursts
system.mem_ctrls1.perBankWrBursts::3            66523                       # Per bank write bursts
system.mem_ctrls1.perBankWrBursts::4            68063                       # Per bank write bursts
system.mem_ctrls1.perBankWrBursts::5            65365                       # Per bank write bursts
system.mem_ctrls1.perBankWrBursts::6            85716                       # Per bank write bursts
system.mem_ctrls1.perBankWrBursts::7            38906                       # Per bank write bursts
system.mem_ctrls1.perBankWrBursts::8           108524                       # Per bank write bursts
system.mem_ctrls1.perBankWrBursts::9            54788                       # Per bank write bursts
system.mem_ctrls1.perBankWrBursts::10           47437                       # Per bank write bursts
system.mem_ctrls1.perBankWrBursts::11           38091                       # Per bank write bursts
system.mem_ctrls1.perBankWrBursts::12          117754                       # Per bank write bursts
system.mem_ctrls1.perBankWrBursts::13           84102                       # Per bank write bursts
system.mem_ctrls1.perBankWrBursts::14           41399                       # Per bank write bursts
system.mem_ctrls1.perBankWrBursts::15           65183                       # Per bank write bursts
system.mem_ctrls1.numRdRetry                        0                       # Number of times read queue was full causing retry
system.mem_ctrls1.numWrRetry                        5                       # Number of times write queue was full causing retry
system.mem_ctrls1.totGap                 1307586837500                       # Total gap between requests
system.mem_ctrls1.readPktSize::0                    0                       # Read request sizes (log2)
system.mem_ctrls1.readPktSize::1                    0                       # Read request sizes (log2)
system.mem_ctrls1.readPktSize::2                    0                       # Read request sizes (log2)
system.mem_ctrls1.readPktSize::3                    0                       # Read request sizes (log2)
system.mem_ctrls1.readPktSize::4                    0                       # Read request sizes (log2)
system.mem_ctrls1.readPktSize::5                    0                       # Read request sizes (log2)
system.mem_ctrls1.readPktSize::6              1113175                       # Read request sizes (log2)
system.mem_ctrls1.writePktSize::0                   0                       # Write request sizes (log2)
system.mem_ctrls1.writePktSize::1                   0                       # Write request sizes (log2)
system.mem_ctrls1.writePktSize::2                   0                       # Write request sizes (log2)
system.mem_ctrls1.writePktSize::3                   0                       # Write request sizes (log2)
system.mem_ctrls1.writePktSize::4                   0                       # Write request sizes (log2)
system.mem_ctrls1.writePktSize::5                   0                       # Write request sizes (log2)
system.mem_ctrls1.writePktSize::6             1123389                       # Write request sizes (log2)
system.mem_ctrls1.rdQLenPdf::0                 882797                       # What read queue length does an incoming req see
system.mem_ctrls1.rdQLenPdf::1                      0                       # What read queue length does an incoming req see
system.mem_ctrls1.rdQLenPdf::2                      0                       # What read queue length does an incoming req see
system.mem_ctrls1.rdQLenPdf::3                      0                       # What read queue length does an incoming req see
system.mem_ctrls1.rdQLenPdf::4                      0                       # What read queue length does an incoming req see
system.mem_ctrls1.rdQLenPdf::5                      0                       # What read queue length does an incoming req see
system.mem_ctrls1.rdQLenPdf::6                      0                       # What read queue length does an incoming req see
system.mem_ctrls1.rdQLenPdf::7                      0                       # What read queue length does an incoming req see
system.mem_ctrls1.rdQLenPdf::8                      0                       # What read queue length does an incoming req see
system.mem_ctrls1.rdQLenPdf::9                      0                       # What read queue length does an incoming req see
system.mem_ctrls1.rdQLenPdf::10                     0                       # What read queue length does an incoming req see
system.mem_ctrls1.rdQLenPdf::11                     0                       # What read queue length does an incoming req see
system.mem_ctrls1.rdQLenPdf::12                     0                       # What read queue length does an incoming req see
system.mem_ctrls1.rdQLenPdf::13                     0                       # What read queue length does an incoming req see
system.mem_ctrls1.rdQLenPdf::14                     0                       # What read queue length does an incoming req see
system.mem_ctrls1.rdQLenPdf::15                     0                       # What read queue length does an incoming req see
system.mem_ctrls1.rdQLenPdf::16                     0                       # What read queue length does an incoming req see
system.mem_ctrls1.rdQLenPdf::17                     0                       # What read queue length does an incoming req see
system.mem_ctrls1.rdQLenPdf::18                     0                       # What read queue length does an incoming req see
system.mem_ctrls1.rdQLenPdf::19                     0                       # What read queue length does an incoming req see
system.mem_ctrls1.rdQLenPdf::20                     0                       # What read queue length does an incoming req see
system.mem_ctrls1.rdQLenPdf::21                     0                       # What read queue length does an incoming req see
system.mem_ctrls1.rdQLenPdf::22                     0                       # What read queue length does an incoming req see
system.mem_ctrls1.rdQLenPdf::23                     0                       # What read queue length does an incoming req see
system.mem_ctrls1.rdQLenPdf::24                     0                       # What read queue length does an incoming req see
system.mem_ctrls1.rdQLenPdf::25                     0                       # What read queue length does an incoming req see
system.mem_ctrls1.rdQLenPdf::26                     0                       # What read queue length does an incoming req see
system.mem_ctrls1.rdQLenPdf::27                     0                       # What read queue length does an incoming req see
system.mem_ctrls1.rdQLenPdf::28                     0                       # What read queue length does an incoming req see
system.mem_ctrls1.rdQLenPdf::29                     0                       # What read queue length does an incoming req see
system.mem_ctrls1.rdQLenPdf::30                     0                       # What read queue length does an incoming req see
system.mem_ctrls1.rdQLenPdf::31                     0                       # What read queue length does an incoming req see
system.mem_ctrls1.wrQLenPdf::0                      0                       # What write queue length does an incoming req see
system.mem_ctrls1.wrQLenPdf::1                      0                       # What write queue length does an incoming req see
system.mem_ctrls1.wrQLenPdf::2                      0                       # What write queue length does an incoming req see
system.mem_ctrls1.wrQLenPdf::3                      0                       # What write queue length does an incoming req see
system.mem_ctrls1.wrQLenPdf::4                      0                       # What write queue length does an incoming req see
system.mem_ctrls1.wrQLenPdf::5                      0                       # What write queue length does an incoming req see
system.mem_ctrls1.wrQLenPdf::6                      0                       # What write queue length does an incoming req see
system.mem_ctrls1.wrQLenPdf::7                      0                       # What write queue length does an incoming req see
system.mem_ctrls1.wrQLenPdf::8                      0                       # What write queue length does an incoming req see
system.mem_ctrls1.wrQLenPdf::9                      0                       # What write queue length does an incoming req see
system.mem_ctrls1.wrQLenPdf::10                     0                       # What write queue length does an incoming req see
system.mem_ctrls1.wrQLenPdf::11                     0                       # What write queue length does an incoming req see
system.mem_ctrls1.wrQLenPdf::12                     0                       # What write queue length does an incoming req see
system.mem_ctrls1.wrQLenPdf::13                     0                       # What write queue length does an incoming req see
system.mem_ctrls1.wrQLenPdf::14                     0                       # What write queue length does an incoming req see
system.mem_ctrls1.wrQLenPdf::15                 11677                       # What write queue length does an incoming req see
system.mem_ctrls1.wrQLenPdf::16                 12066                       # What write queue length does an incoming req see
system.mem_ctrls1.wrQLenPdf::17                 64051                       # What write queue length does an incoming req see
system.mem_ctrls1.wrQLenPdf::18                 65049                       # What write queue length does an incoming req see
system.mem_ctrls1.wrQLenPdf::19                 65144                       # What write queue length does an incoming req see
system.mem_ctrls1.wrQLenPdf::20                 65176                       # What write queue length does an incoming req see
system.mem_ctrls1.wrQLenPdf::21                 65214                       # What write queue length does an incoming req see
system.mem_ctrls1.wrQLenPdf::22                 65257                       # What write queue length does an incoming req see
system.mem_ctrls1.wrQLenPdf::23                 65231                       # What write queue length does an incoming req see
system.mem_ctrls1.wrQLenPdf::24                 65277                       # What write queue length does an incoming req see
system.mem_ctrls1.wrQLenPdf::25                 65383                       # What write queue length does an incoming req see
system.mem_ctrls1.wrQLenPdf::26                 65240                       # What write queue length does an incoming req see
system.mem_ctrls1.wrQLenPdf::27                 65158                       # What write queue length does an incoming req see
system.mem_ctrls1.wrQLenPdf::28                 64999                       # What write queue length does an incoming req see
system.mem_ctrls1.wrQLenPdf::29                 64926                       # What write queue length does an incoming req see
system.mem_ctrls1.wrQLenPdf::30                 64840                       # What write queue length does an incoming req see
system.mem_ctrls1.wrQLenPdf::31                 64788                       # What write queue length does an incoming req see
system.mem_ctrls1.wrQLenPdf::32                 64767                       # What write queue length does an incoming req see
system.mem_ctrls1.wrQLenPdf::33                    79                       # What write queue length does an incoming req see
system.mem_ctrls1.wrQLenPdf::34                    29                       # What write queue length does an incoming req see
system.mem_ctrls1.wrQLenPdf::35                    32                       # What write queue length does an incoming req see
system.mem_ctrls1.wrQLenPdf::36                    26                       # What write queue length does an incoming req see
system.mem_ctrls1.wrQLenPdf::37                    19                       # What write queue length does an incoming req see
system.mem_ctrls1.wrQLenPdf::38                    24                       # What write queue length does an incoming req see
system.mem_ctrls1.wrQLenPdf::39                    19                       # What write queue length does an incoming req see
system.mem_ctrls1.wrQLenPdf::40                    12                       # What write queue length does an incoming req see
system.mem_ctrls1.wrQLenPdf::41                    12                       # What write queue length does an incoming req see
system.mem_ctrls1.wrQLenPdf::42                    15                       # What write queue length does an incoming req see
system.mem_ctrls1.wrQLenPdf::43                    17                       # What write queue length does an incoming req see
system.mem_ctrls1.wrQLenPdf::44                    16                       # What write queue length does an incoming req see
system.mem_ctrls1.wrQLenPdf::45                    16                       # What write queue length does an incoming req see
system.mem_ctrls1.wrQLenPdf::46                    10                       # What write queue length does an incoming req see
system.mem_ctrls1.wrQLenPdf::47                     7                       # What write queue length does an incoming req see
system.mem_ctrls1.wrQLenPdf::48                     8                       # What write queue length does an incoming req see
system.mem_ctrls1.wrQLenPdf::49                     9                       # What write queue length does an incoming req see
system.mem_ctrls1.wrQLenPdf::50                    12                       # What write queue length does an incoming req see
system.mem_ctrls1.wrQLenPdf::51                    17                       # What write queue length does an incoming req see
system.mem_ctrls1.wrQLenPdf::52                     6                       # What write queue length does an incoming req see
system.mem_ctrls1.wrQLenPdf::53                     4                       # What write queue length does an incoming req see
system.mem_ctrls1.wrQLenPdf::54                     4                       # What write queue length does an incoming req see
system.mem_ctrls1.wrQLenPdf::55                     3                       # What write queue length does an incoming req see
system.mem_ctrls1.wrQLenPdf::56                     4                       # What write queue length does an incoming req see
system.mem_ctrls1.wrQLenPdf::57                     3                       # What write queue length does an incoming req see
system.mem_ctrls1.wrQLenPdf::58                     4                       # What write queue length does an incoming req see
system.mem_ctrls1.wrQLenPdf::59                     4                       # What write queue length does an incoming req see
system.mem_ctrls1.wrQLenPdf::60                     3                       # What write queue length does an incoming req see
system.mem_ctrls1.wrQLenPdf::61                     2                       # What write queue length does an incoming req see
system.mem_ctrls1.wrQLenPdf::62                     3                       # What write queue length does an incoming req see
system.mem_ctrls1.wrQLenPdf::63                     9                       # What write queue length does an incoming req see
system.mem_ctrls1.bytesPerActivate::samples      1045447                       # Bytes accessed per row activation
system.mem_ctrls1.bytesPerActivate::mean   119.219159                       # Bytes accessed per row activation
system.mem_ctrls1.bytesPerActivate::gmean    97.819029                       # Bytes accessed per row activation
system.mem_ctrls1.bytesPerActivate::stdev    97.824885                       # Bytes accessed per row activation
system.mem_ctrls1.bytesPerActivate::0-127       609219     58.27%     58.27% # Bytes accessed per row activation
system.mem_ctrls1.bytesPerActivate::128-255       328450     31.42%     89.69% # Bytes accessed per row activation
system.mem_ctrls1.bytesPerActivate::256-383        74509      7.13%     96.82% # Bytes accessed per row activation
system.mem_ctrls1.bytesPerActivate::384-511        20991      2.01%     98.83% # Bytes accessed per row activation
system.mem_ctrls1.bytesPerActivate::512-639         7013      0.67%     99.50% # Bytes accessed per row activation
system.mem_ctrls1.bytesPerActivate::640-767         2049      0.20%     99.69% # Bytes accessed per row activation
system.mem_ctrls1.bytesPerActivate::768-895         1158      0.11%     99.80% # Bytes accessed per row activation
system.mem_ctrls1.bytesPerActivate::896-1023          799      0.08%     99.88% # Bytes accessed per row activation
system.mem_ctrls1.bytesPerActivate::1024-1151         1259      0.12%    100.00% # Bytes accessed per row activation
system.mem_ctrls1.bytesPerActivate::total      1045447                       # Bytes accessed per row activation
system.mem_ctrls1.rdPerTurnAround::samples        64752                       # Reads before turning the bus around for writes
system.mem_ctrls1.rdPerTurnAround::mean     13.633417                       # Reads before turning the bus around for writes
system.mem_ctrls1.rdPerTurnAround::stdev     2.267393                       # Reads before turning the bus around for writes
system.mem_ctrls1.rdPerTurnAround::0              102      0.16%      0.16% # Reads before turning the bus around for writes
system.mem_ctrls1.rdPerTurnAround::1              107      0.17%      0.32% # Reads before turning the bus around for writes
system.mem_ctrls1.rdPerTurnAround::2               37      0.06%      0.38% # Reads before turning the bus around for writes
system.mem_ctrls1.rdPerTurnAround::3               25      0.04%      0.42% # Reads before turning the bus around for writes
system.mem_ctrls1.rdPerTurnAround::4               29      0.04%      0.46% # Reads before turning the bus around for writes
system.mem_ctrls1.rdPerTurnAround::5               60      0.09%      0.56% # Reads before turning the bus around for writes
system.mem_ctrls1.rdPerTurnAround::6              135      0.21%      0.76% # Reads before turning the bus around for writes
system.mem_ctrls1.rdPerTurnAround::7              359      0.55%      1.32% # Reads before turning the bus around for writes
system.mem_ctrls1.rdPerTurnAround::8              750      1.16%      2.48% # Reads before turning the bus around for writes
system.mem_ctrls1.rdPerTurnAround::9             1403      2.17%      4.64% # Reads before turning the bus around for writes
system.mem_ctrls1.rdPerTurnAround::10            2584      3.99%      8.63% # Reads before turning the bus around for writes
system.mem_ctrls1.rdPerTurnAround::11            4328      6.68%     15.32% # Reads before turning the bus around for writes
system.mem_ctrls1.rdPerTurnAround::12            6925     10.69%     26.01% # Reads before turning the bus around for writes
system.mem_ctrls1.rdPerTurnAround::13            9855     15.22%     41.23% # Reads before turning the bus around for writes
system.mem_ctrls1.rdPerTurnAround::14           11978     18.50%     59.73% # Reads before turning the bus around for writes
system.mem_ctrls1.rdPerTurnAround::15           11625     17.95%     77.68% # Reads before turning the bus around for writes
system.mem_ctrls1.rdPerTurnAround::16           12481     19.28%     96.96% # Reads before turning the bus around for writes
system.mem_ctrls1.rdPerTurnAround::17            1734      2.68%     99.64% # Reads before turning the bus around for writes
system.mem_ctrls1.rdPerTurnAround::18             205      0.32%     99.95% # Reads before turning the bus around for writes
system.mem_ctrls1.rdPerTurnAround::19              27      0.04%    100.00% # Reads before turning the bus around for writes
system.mem_ctrls1.rdPerTurnAround::20               2      0.00%    100.00% # Reads before turning the bus around for writes
system.mem_ctrls1.rdPerTurnAround::22               1      0.00%    100.00% # Reads before turning the bus around for writes
system.mem_ctrls1.rdPerTurnAround::total        64752                       # Reads before turning the bus around for writes
system.mem_ctrls1.wrPerTurnAround::samples        64752                       # Writes before turning the bus around for reads
system.mem_ctrls1.wrPerTurnAround::mean     16.442149                       # Writes before turning the bus around for reads
system.mem_ctrls1.wrPerTurnAround::gmean    16.396811                       # Writes before turning the bus around for reads
system.mem_ctrls1.wrPerTurnAround::stdev     1.561945                       # Writes before turning the bus around for reads
system.mem_ctrls1.wrPerTurnAround::16-17        52958     81.79%     81.79% # Writes before turning the bus around for reads
system.mem_ctrls1.wrPerTurnAround::18-19        11509     17.77%     99.56% # Writes before turning the bus around for reads
system.mem_ctrls1.wrPerTurnAround::20-21           17      0.03%     99.59% # Writes before turning the bus around for reads
system.mem_ctrls1.wrPerTurnAround::22-23            7      0.01%     99.60% # Writes before turning the bus around for reads
system.mem_ctrls1.wrPerTurnAround::24-25           21      0.03%     99.63% # Writes before turning the bus around for reads
system.mem_ctrls1.wrPerTurnAround::26-27           29      0.04%     99.67% # Writes before turning the bus around for reads
system.mem_ctrls1.wrPerTurnAround::28-29           36      0.06%     99.73% # Writes before turning the bus around for reads
system.mem_ctrls1.wrPerTurnAround::30-31           28      0.04%     99.77% # Writes before turning the bus around for reads
system.mem_ctrls1.wrPerTurnAround::32-33           41      0.06%     99.84% # Writes before turning the bus around for reads
system.mem_ctrls1.wrPerTurnAround::34-35           24      0.04%     99.87% # Writes before turning the bus around for reads
system.mem_ctrls1.wrPerTurnAround::36-37           13      0.02%     99.89% # Writes before turning the bus around for reads
system.mem_ctrls1.wrPerTurnAround::38-39            8      0.01%     99.91% # Writes before turning the bus around for reads
system.mem_ctrls1.wrPerTurnAround::40-41           11      0.02%     99.92% # Writes before turning the bus around for reads
system.mem_ctrls1.wrPerTurnAround::42-43            6      0.01%     99.93% # Writes before turning the bus around for reads
system.mem_ctrls1.wrPerTurnAround::44-45            3      0.00%     99.94% # Writes before turning the bus around for reads
system.mem_ctrls1.wrPerTurnAround::46-47            6      0.01%     99.95% # Writes before turning the bus around for reads
system.mem_ctrls1.wrPerTurnAround::48-49           17      0.03%     99.97% # Writes before turning the bus around for reads
system.mem_ctrls1.wrPerTurnAround::54-55            2      0.00%     99.98% # Writes before turning the bus around for reads
system.mem_ctrls1.wrPerTurnAround::56-57            5      0.01%     99.98% # Writes before turning the bus around for reads
system.mem_ctrls1.wrPerTurnAround::58-59            1      0.00%     99.98% # Writes before turning the bus around for reads
system.mem_ctrls1.wrPerTurnAround::60-61            1      0.00%     99.99% # Writes before turning the bus around for reads
system.mem_ctrls1.wrPerTurnAround::64-65            3      0.00%     99.99% # Writes before turning the bus around for reads
system.mem_ctrls1.wrPerTurnAround::66-67            3      0.00%    100.00% # Writes before turning the bus around for reads
system.mem_ctrls1.wrPerTurnAround::72-73            1      0.00%    100.00% # Writes before turning the bus around for reads
system.mem_ctrls1.wrPerTurnAround::76-77            1      0.00%    100.00% # Writes before turning the bus around for reads
system.mem_ctrls1.wrPerTurnAround::78-79            1      0.00%    100.00% # Writes before turning the bus around for reads
system.mem_ctrls1.wrPerTurnAround::total        64752                       # Writes before turning the bus around for reads
system.mem_ctrls1.totQLat                 34526048500                       # Total ticks spent queuing
system.mem_ctrls1.totMemAccLat            51078492250                       # Total ticks spent from burst creation until serviced by the DRAM
system.mem_ctrls1.totBusLat                4413985000                       # Total ticks spent in databus transfers
system.mem_ctrls1.avgQLat                    39109.84                       # Average queueing delay per DRAM burst
system.mem_ctrls1.avgBusLat                   5000.00                       # Average bus latency per DRAM burst
system.mem_ctrls1.avgMemAccLat               57859.84                       # Average memory access latency per DRAM burst
system.mem_ctrls1.avgRdBW                       43.21                       # Average DRAM read bandwidth in MiByte/s
system.mem_ctrls1.avgWrBW                       52.11                       # Average achieved write bandwidth in MiByte/s
system.mem_ctrls1.avgRdBWSys                    54.48                       # Average system read bandwidth in MiByte/s
system.mem_ctrls1.avgWrBWSys                    54.98                       # Average system write bandwidth in MiByte/s
system.mem_ctrls1.peakBW                     12800.00                       # Theoretical peak bandwidth in MiByte/s
system.mem_ctrls1.busUtil                        0.74                       # Data bus utilization in percentage
system.mem_ctrls1.busUtilRead                    0.34                       # Data bus utilization in percentage for reads
system.mem_ctrls1.busUtilWrite                   0.41                       # Data bus utilization in percentage for writes
system.mem_ctrls1.avgRdQLen                      1.00                       # Average read queue length when enqueuing
system.mem_ctrls1.avgWrQLen                     25.45                       # Average write queue length when enqueuing
system.mem_ctrls1.readRowHits                  351698                       # Number of row buffer hits during reads
system.mem_ctrls1.writeRowHits                 550312                       # Number of row buffer hits during writes
system.mem_ctrls1.readRowHitRate                39.84                       # Row buffer hit rate for reads
system.mem_ctrls1.writeRowHitRate               51.69                       # Row buffer hit rate for writes
system.mem_ctrls1.avgGap                    584640.92                       # Average gap between requests
system.mem_ctrls1.pageHitRate                   46.32                       # Row buffer hit rate, read and write combined
system.mem_ctrls1_0.actEnergy              5015714340                       # Energy for activate commands per rank (pJ)
system.mem_ctrls1_0.preEnergy              2665907805                       # Energy for precharge commands per rank (pJ)
system.mem_ctrls1_0.readEnergy             4278216600                       # Energy for read commands per rank (pJ)
system.mem_ctrls1_0.writeEnergy            3747182220                       # Energy for write commands per rank (pJ)
system.mem_ctrls1_0.refreshEnergy        116733658080.000031                       # Energy for refresh commands per rank (pJ)
system.mem_ctrls1_0.actBackEnergy         76093618890                       # Energy for active background per rank (pJ)
system.mem_ctrls1_0.preBackEnergy          4592220960                       # Energy for precharge background per rank (pJ)
system.mem_ctrls1_0.actPowerDownEnergy   359440401150                       # Energy for active power-down per rank (pJ)
system.mem_ctrls1_0.prePowerDownEnergy   144316578720                       # Energy for precharge power-down per rank (pJ)
system.mem_ctrls1_0.selfRefreshEnergy    1290544926375                       # Energy for self refresh per rank (pJ)
system.mem_ctrls1_0.totalEnergy          2007476526780                       # Total energy per rank (pJ)
system.mem_ctrls1_0.averagePower           300.655733                       # Core power per rank (mW)
system.mem_ctrls1_0.totalIdleTime        1163295157250                       # Total Idle time Per DRAM Rank
system.mem_ctrls1_0.memoryStateTime::IDLE   6082306250                       # Time in different power states
system.mem_ctrls1_0.memoryStateTime::REF  39303928000                       # Time in different power states
system.mem_ctrls1_0.memoryStateTime::SREF 248041134750                       # Time in different power states
system.mem_ctrls1_0.memoryStateTime::PRE_PDN 315104093750                       # Time in different power states
system.mem_ctrls1_0.memoryStateTime::ACT  98905459750                       # Time in different power states
system.mem_ctrls1_0.memoryStateTime::ACT_PDN 600149954250                       # Time in different power states
system.mem_ctrls1_1.actEnergy              4637772720                       # Energy for activate commands per rank (pJ)
system.mem_ctrls1_1.preEnergy              2465027070                       # Energy for precharge commands per rank (pJ)
system.mem_ctrls1_1.readEnergy             4268406240                       # Energy for read commands per rank (pJ)
system.mem_ctrls1_1.writeEnergy            3594565080                       # Energy for write commands per rank (pJ)
system.mem_ctrls1_1.refreshEnergy        118789014240.000031                       # Energy for refresh commands per rank (pJ)
system.mem_ctrls1_1.actBackEnergy         75274845240                       # Energy for active background per rank (pJ)
system.mem_ctrls1_1.preBackEnergy          4578710880                       # Energy for precharge background per rank (pJ)
system.mem_ctrls1_1.actPowerDownEnergy   360564619560                       # Energy for active power-down per rank (pJ)
system.mem_ctrls1_1.prePowerDownEnergy   150873853440                       # Energy for precharge power-down per rank (pJ)
system.mem_ctrls1_1.selfRefreshEnergy    1286931562920                       # Energy for self refresh per rank (pJ)
system.mem_ctrls1_1.totalEnergy          2012039253420                       # Total energy per rank (pJ)
system.mem_ctrls1_1.averagePower           301.339084                       # Core power per rank (mW)
system.mem_ctrls1_1.totalIdleTime        1172093618750                       # Total Idle time Per DRAM Rank
system.mem_ctrls1_1.memoryStateTime::IDLE   5330559000                       # Time in different power states
system.mem_ctrls1_1.memoryStateTime::REF  39900890000                       # Time in different power states
system.mem_ctrls1_1.memoryStateTime::SREF 226363925250                       # Time in different power states
system.mem_ctrls1_1.memoryStateTime::PRE_PDN 304015397250                       # Time in different power states
system.mem_ctrls1_1.memoryStateTime::ACT  90259370750                       # Time in different power states
system.mem_ctrls1_1.memoryStateTime::ACT_PDN 641718079250                       # Time in different power states
system.mem_ctrls2.pwrStateResidencyTicks::UNDEFINED 6676993984000                       # Cumulative time (in ticks) in various power states
system.mem_ctrls2.bytes_read::ruby.dir_cntrl2     73050816                       # Number of bytes read from this memory
system.mem_ctrls2.bytes_read::total          73050816                       # Number of bytes read from this memory
system.mem_ctrls2.bytes_written::ruby.dir_cntrl2     73704512                       # Number of bytes written to this memory
system.mem_ctrls2.bytes_written::total       73704512                       # Number of bytes written to this memory
system.mem_ctrls2.num_reads::ruby.dir_cntrl2      1141419                       # Number of read requests responded to by this memory
system.mem_ctrls2.num_reads::total            1141419                       # Number of read requests responded to by this memory
system.mem_ctrls2.num_writes::ruby.dir_cntrl2      1151633                       # Number of write requests responded to by this memory
system.mem_ctrls2.num_writes::total           1151633                       # Number of write requests responded to by this memory
system.mem_ctrls2.bw_read::ruby.dir_cntrl2     55866897                       # Total read bandwidth from this memory (bytes/s)
system.mem_ctrls2.bw_read::total             55866897                       # Total read bandwidth from this memory (bytes/s)
system.mem_ctrls2.bw_write::ruby.dir_cntrl2     56366822                       # Write bandwidth from this memory (bytes/s)
system.mem_ctrls2.bw_write::total            56366822                       # Write bandwidth from this memory (bytes/s)
system.mem_ctrls2.bw_total::ruby.dir_cntrl2    112233719                       # Total bandwidth to/from this memory (bytes/s)
system.mem_ctrls2.bw_total::total           112233719                       # Total bandwidth to/from this memory (bytes/s)
system.mem_ctrls2.readReqs                    1141419                       # Number of read requests accepted
system.mem_ctrls2.writeReqs                   1151633                       # Number of write requests accepted
system.mem_ctrls2.readBursts                  1141419                       # Number of DRAM read bursts, including those serviced by the write queue
system.mem_ctrls2.writeBursts                 1151633                       # Number of DRAM write bursts, including those merged in the write queue
system.mem_ctrls2.bytesReadDRAM              56738816                       # Total number of bytes read from DRAM
system.mem_ctrls2.bytesReadWrQ               16312000                       # Total number of bytes read from write queue
system.mem_ctrls2.bytesWritten               69256640                       # Total number of bytes written to DRAM
system.mem_ctrls2.bytesReadSys               73050816                       # Total read bytes from the system interface side
system.mem_ctrls2.bytesWrittenSys            73704512                       # Total written bytes from the system interface side
system.mem_ctrls2.servicedByWrQ                254875                       # Number of DRAM read bursts serviced by the write queue
system.mem_ctrls2.mergedWrBursts                69492                       # Number of DRAM write bursts merged with an existing one
system.mem_ctrls2.neitherReadNorWriteReqs            0                       # Number of requests that are neither read nor write
system.mem_ctrls2.perBankRdBursts::0            51526                       # Per bank write bursts
system.mem_ctrls2.perBankRdBursts::1            44155                       # Per bank write bursts
system.mem_ctrls2.perBankRdBursts::2            58949                       # Per bank write bursts
system.mem_ctrls2.perBankRdBursts::3            52551                       # Per bank write bursts
system.mem_ctrls2.perBankRdBursts::4            59608                       # Per bank write bursts
system.mem_ctrls2.perBankRdBursts::5            49714                       # Per bank write bursts
system.mem_ctrls2.perBankRdBursts::6            65635                       # Per bank write bursts
system.mem_ctrls2.perBankRdBursts::7            33945                       # Per bank write bursts
system.mem_ctrls2.perBankRdBursts::8            97865                       # Per bank write bursts
system.mem_ctrls2.perBankRdBursts::9            48158                       # Per bank write bursts
system.mem_ctrls2.perBankRdBursts::10           35180                       # Per bank write bursts
system.mem_ctrls2.perBankRdBursts::11           31448                       # Per bank write bursts
system.mem_ctrls2.perBankRdBursts::12           98758                       # Per bank write bursts
system.mem_ctrls2.perBankRdBursts::13           66163                       # Per bank write bursts
system.mem_ctrls2.perBankRdBursts::14           38261                       # Per bank write bursts
system.mem_ctrls2.perBankRdBursts::15           54628                       # Per bank write bursts
system.mem_ctrls2.perBankWrBursts::0            67416                       # Per bank write bursts
system.mem_ctrls2.perBankWrBursts::1            53559                       # Per bank write bursts
system.mem_ctrls2.perBankWrBursts::2            70854                       # Per bank write bursts
system.mem_ctrls2.perBankWrBursts::3            69758                       # Per bank write bursts
system.mem_ctrls2.perBankWrBursts::4            79993                       # Per bank write bursts
system.mem_ctrls2.perBankWrBursts::5            62271                       # Per bank write bursts
system.mem_ctrls2.perBankWrBursts::6            85705                       # Per bank write bursts
system.mem_ctrls2.perBankWrBursts::7            38941                       # Per bank write bursts
system.mem_ctrls2.perBankWrBursts::8           117025                       # Per bank write bursts
[...]
system.ruby.IFETCH.Directory.miss_type_mach_latency_hist_seqr::samples      3555867                      
system.ruby.IFETCH.Directory.miss_type_mach_latency_hist_seqr::mean   140.291505                      
system.ruby.IFETCH.Directory.miss_type_mach_latency_hist_seqr::gmean   106.990633                      
system.ruby.IFETCH.Directory.miss_type_mach_latency_hist_seqr::stdev   159.372974                      
system.ruby.IFETCH.Directory.miss_type_mach_latency_hist_seqr |     3284845     92.38%     92.38% |      178156      5.01%     97.39% |       33487      0.94%     98.33% |        1987      0.06%     98.39% |       55294      1.56%     99.94% |        2024      0.06%    100.00% |          74      0.00%    100.00% |           0      0.00%    100.00% |           0      0.00%    100.00% |           0      0.00%    100.00%
system.ruby.IFETCH.Directory.miss_type_mach_latency_hist_seqr::total      3555867                      
system.ruby.RMW_Read.Directory.miss_type_mach_latency_hist_seqr::bucket_size          256                      
system.ruby.RMW_Read.Directory.miss_type_mach_latency_hist_seqr::max_bucket         2559                      
system.ruby.RMW_Read.Directory.miss_type_mach_latency_hist_seqr::samples        47659                      
system.ruby.RMW_Read.Directory.miss_type_mach_latency_hist_seqr::mean   143.822426                      
system.ruby.RMW_Read.Directory.miss_type_mach_latency_hist_seqr::gmean   102.409631                      
system.ruby.RMW_Read.Directory.miss_type_mach_latency_hist_seqr::stdev   182.800713                      
system.ruby.RMW_Read.Directory.miss_type_mach_latency_hist_seqr |       44042     92.41%     92.41% |        2085      4.37%     96.79% |         395      0.83%     97.61% |          29      0.06%     97.68% |        1069      2.24%     99.92% |          39      0.08%    100.00% |           0      0.00%    100.00% |           0      0.00%    100.00% |           0      0.00%    100.00% |           0      0.00%    100.00%
system.ruby.RMW_Read.Directory.miss_type_mach_latency_hist_seqr::total        47659                      
system.ruby.Locked_RMW_Read.Directory.miss_type_mach_latency_hist_seqr::bucket_size          128                      
system.ruby.Locked_RMW_Read.Directory.miss_type_mach_latency_hist_seqr::max_bucket         1279                      
system.ruby.Locked_RMW_Read.Directory.miss_type_mach_latency_hist_seqr::samples          519                      
system.ruby.Locked_RMW_Read.Directory.miss_type_mach_latency_hist_seqr::mean   172.892100                      
system.ruby.Locked_RMW_Read.Directory.miss_type_mach_latency_hist_seqr::gmean   149.055460                      
system.ruby.Locked_RMW_Read.Directory.miss_type_mach_latency_hist_seqr::stdev   150.241723                      
system.ruby.Locked_RMW_Read.Directory.miss_type_mach_latency_hist_seqr |          77     14.84%     14.84% |         396     76.30%     91.14% |          29      5.59%     96.72% |           1      0.19%     96.92% |           7      1.35%     98.27% |           1      0.19%     98.46% |           0      0.00%     98.46% |           0      0.00%     98.46% |           0      0.00%     98.46% |           8      1.54%    100.00%
system.ruby.Locked_RMW_Read.Directory.miss_type_mach_latency_hist_seqr::total          519                      
system.ruby.Directory_Controller.GETX    |     1180437     12.90%     12.90% |     1113175     12.17%     25.07% |     1141419     12.48%     37.55% |     1085900     11.87%     49.42% |     1083564     11.85%     61.27% |     1151586     12.59%     73.86% |     1227986     13.42%     87.28% |     1163556     12.72%    100.00%
system.ruby.Directory_Controller.GETX::total      9147623                      
system.ruby.Directory_Controller.PUTX    |     1180437     12.90%     12.90% |     1113175     12.17%     25.07% |     1141419     12.48%     37.55% |     1085900     11.87%     49.42% |     1083564     11.85%     61.27% |     1151586     12.59%     73.86% |     1227986     13.42%     87.28% |     1163556     12.72%    100.00%
system.ruby.Directory_Controller.PUTX::total      9147623                      
system.ruby.Directory_Controller.DMA_READ |         347    100.00%    100.00% |           0      0.00%    100.00% |           0      0.00%    100.00% |           0      0.00%    100.00% |           0      0.00%    100.00% |           0      0.00%    100.00% |           0      0.00%    100.00% |           0      0.00%    100.00%
system.ruby.Directory_Controller.DMA_READ::total          347                      
system.ruby.Directory_Controller.DMA_WRITE |       10214     12.50%     12.50% |       10214     12.50%     25.00% |       10214     12.50%     37.50% |       10214     12.50%     50.00% |       10214     12.50%     62.50% |       10214     12.50%     75.00% |       10214     12.50%     87.50% |       10214     12.50%    100.00%
system.ruby.Directory_Controller.DMA_WRITE::total        81712                      
system.ruby.Directory_Controller.Memory_Data |     1180565     12.91%     12.91% |     1113175     12.17%     25.07% |     1141419     12.48%     37.55% |     1085900     11.87%     49.42% |     1083564     11.85%     61.27% |     1151586     12.59%     73.86% |     1227986     13.42%     87.28% |     1163556     12.72%    100.00%
system.ruby.Directory_Controller.Memory_Data::total      9147751                      
system.ruby.Directory_Controller.Memory_Ack |     1190651     12.90%     12.90% |     1123389     12.17%     25.07% |     1151633     12.48%     37.55% |     1096114     11.88%     49.43% |     1093778     11.85%     61.28% |     1161800     12.59%     73.87% |     1238200     13.42%     87.28% |     1173770     12.72%    100.00%
system.ruby.Directory_Controller.Memory_Ack::total      9229335                      
system.ruby.Directory_Controller.I.GETX  |     1180437     12.90%     12.90% |     1113175     12.17%     25.07% |     1141419     12.48%     37.55% |     1085900     11.87%     49.42% |     1083564     11.85%     61.27% |     1151586     12.59%     73.86% |     1227986     13.42%     87.28% |     1163556     12.72%    100.00%
system.ruby.Directory_Controller.I.GETX::total      9147623                      
system.ruby.Directory_Controller.I.DMA_READ |         128    100.00%    100.00% |           0      0.00%    100.00% |           0      0.00%    100.00% |           0      0.00%    100.00% |           0      0.00%    100.00% |           0      0.00%    100.00% |           0      0.00%    100.00% |           0      0.00%    100.00%
system.ruby.Directory_Controller.I.DMA_READ::total          128                      
system.ruby.Directory_Controller.I.DMA_WRITE |       10214     12.50%     12.50% |       10214     12.50%     25.00% |       10214     12.50%     37.50% |       10214     12.50%     50.00% |       10214     12.50%     62.50% |       10214     12.50%     75.00% |       10214     12.50%     87.50% |       10214     12.50%    100.00%
system.ruby.Directory_Controller.I.DMA_WRITE::total        81712                      
system.ruby.Directory_Controller.M.PUTX  |     1180218     12.90%     12.90% |     1113175     12.17%     25.07% |     1141419     12.48%     37.55% |     1085900     11.87%     49.42% |     1083564     11.85%     61.27% |     1151586     12.59%     73.86% |     1227986     13.42%     87.28% |     1163556     12.72%    100.00%
system.ruby.Directory_Controller.M.PUTX::total      9147404                      
system.ruby.Directory_Controller.M.DMA_READ |         219    100.00%    100.00% |           0      0.00%    100.00% |           0      0.00%    100.00% |           0      0.00%    100.00% |           0      0.00%    100.00% |           0      0.00%    100.00% |           0      0.00%    100.00% |           0      0.00%    100.00%
system.ruby.Directory_Controller.M.DMA_READ::total          219                      
system.ruby.Directory_Controller.M_DRD.PUTX |         219    100.00%    100.00% |           0      0.00%    100.00% |           0      0.00%    100.00% |           0      0.00%    100.00% |           0      0.00%    100.00% |           0      0.00%    100.00% |           0      0.00%    100.00% |           0      0.00%    100.00%
system.ruby.Directory_Controller.M_DRD.PUTX::total          219                      
system.ruby.Directory_Controller.M_DRDI.Memory_Ack |         219    100.00%    100.00% |           0      0.00%    100.00% |           0      0.00%    100.00% |           0      0.00%    100.00% |           0      0.00%    100.00% |           0      0.00%    100.00% |           0      0.00%    100.00% |           0      0.00%    100.00%
system.ruby.Directory_Controller.M_DRDI.Memory_Ack::total          219                      
system.ruby.Directory_Controller.IM.Memory_Data |     1180437     12.90%     12.90% |     1113175     12.17%     25.07% |     1141419     12.48%     37.55% |     1085900     11.87%     49.42% |     1083564     11.85%     61.27% |     1151586     12.59%     73.86% |     1227986     13.42%     87.28% |     1163556     12.72%    100.00%
system.ruby.Directory_Controller.IM.Memory_Data::total      9147623                      
system.ruby.Directory_Controller.MI.Memory_Ack |     1180218     12.90%     12.90% |     1113175     12.17%     25.07% |     1141419     12.48%     37.55% |     1085900     11.87%     49.42% |     1083564     11.85%     61.27% |     1151586     12.59%     73.86% |     1227986     13.42%     87.28% |     1163556     12.72%    100.00%
system.ruby.Directory_Controller.MI.Memory_Ack::total      9147404                      
system.ruby.Directory_Controller.ID.Memory_Data |         128    100.00%    100.00% |           0      0.00%    100.00% |           0      0.00%    100.00% |           0      0.00%    100.00% |           0      0.00%    100.00% |           0      0.00%    100.00% |           0      0.00%    100.00% |           0      0.00%    100.00%
system.ruby.Directory_Controller.ID.Memory_Data::total          128                      
system.ruby.Directory_Controller.ID_W.Memory_Ack |       10214     12.50%     12.50% |       10214     12.50%     25.00% |       10214     12.50%     37.50% |       10214     12.50%     50.00% |       10214     12.50%     62.50% |       10214     12.50%     75.00% |       10214     12.50%     87.50% |       10214     12.50%    100.00%
system.ruby.Directory_Controller.ID_W.Memory_Ack::total        81712                      
system.ruby.DMA_Controller.ReadRequest   |         347    100.00%    100.00% |           0      0.00%    100.00%
system.ruby.DMA_Controller.ReadRequest::total          347                      
system.ruby.DMA_Controller.WriteRequest  |       81712    100.00%    100.00% |           0      0.00%    100.00%
system.ruby.DMA_Controller.WriteRequest::total        81712                      
system.ruby.DMA_Controller.Data          |         347    100.00%    100.00% |           0      0.00%    100.00%
system.ruby.DMA_Controller.Data::total            347                      
system.ruby.DMA_Controller.Ack           |       81712    100.00%    100.00% |           0      0.00%    100.00%
system.ruby.DMA_Controller.Ack::total           81712                      
system.ruby.DMA_Controller.READY.ReadRequest |         347    100.00%    100.00% |           0      0.00%    100.00%
system.ruby.DMA_Controller.READY.ReadRequest::total          347                      
system.ruby.DMA_Controller.READY.WriteRequest |       81712    100.00%    100.00% |           0      0.00%    100.00%
system.ruby.DMA_Controller.READY.WriteRequest::total        81712                      
system.ruby.DMA_Controller.BUSY_RD.Data  |         347    100.00%    100.00% |           0      0.00%    100.00%
system.ruby.DMA_Controller.BUSY_RD.Data::total          347                      
system.ruby.DMA_Controller.BUSY_WR.Ack   |       81712    100.00%    100.00% |           0      0.00%    100.00%
system.ruby.DMA_Controller.BUSY_WR.Ack::total        81712                      
system.ruby.L1Cache_Controller.Load      |   102682767    100.00%    100.00% |           0      0.00%    100.00% |           0      0.00%    100.00% |           0      0.00%    100.00% |           0      0.00%    100.00% |           0      0.00%    100.00% |           0      0.00%    100.00% |           0      0.00%    100.00%
system.ruby.L1Cache_Controller.Load::total    102682767                      
system.ruby.L1Cache_Controller.Ifetch    |   478395676    100.00%    100.00% |           0      0.00%    100.00% |           0      0.00%    100.00% |           0      0.00%    100.00% |           0      0.00%    100.00% |           0      0.00%    100.00% |           0      0.00%    100.00% |           0      0.00%    100.00%
system.ruby.L1Cache_Controller.Ifetch::total    478395676                      
system.ruby.L1Cache_Controller.Store     |    43662093    100.00%    100.00% |           0      0.00%    100.00% |           0      0.00%    100.00% |           0      0.00%    100.00% |           0      0.00%    100.00% |           0      0.00%    100.00% |           0      0.00%    100.00% |           0      0.00%    100.00%
system.ruby.L1Cache_Controller.Store::total     43662093                      
system.ruby.L1Cache_Controller.Data      |     9147623    100.00%    100.00% |           0      0.00%    100.00% |           0      0.00%    100.00% |           0      0.00%    100.00% |           0      0.00%    100.00% |           0      0.00%    100.00% |           0      0.00%    100.00% |           0      0.00%    100.00%
system.ruby.L1Cache_Controller.Data::total      9147623                      
system.ruby.L1Cache_Controller.Inv       |         438    100.00%    100.00% |           0      0.00%    100.00% |           0      0.00%    100.00% |           0      0.00%    100.00% |           0      0.00%    100.00% |           0      0.00%    100.00% |           0      0.00%    100.00% |           0      0.00%    100.00%
system.ruby.L1Cache_Controller.Inv::total          438                      
system.ruby.L1Cache_Controller.Replacement |     9147404    100.00%    100.00% |           0      0.00%    100.00% |           0      0.00%    100.00% |           0      0.00%    100.00% |           0      0.00%    100.00% |           0      0.00%    100.00% |           0      0.00%    100.00% |           0      0.00%    100.00%
system.ruby.L1Cache_Controller.Replacement::total      9147404                      
system.ruby.L1Cache_Controller.Writeback_Ack |     9147623    100.00%    100.00% |           0      0.00%    100.00% |           0      0.00%    100.00% |           0      0.00%    100.00% |           0      0.00%    100.00% |           0      0.00%    100.00% |           0      0.00%    100.00% |           0      0.00%    100.00%
system.ruby.L1Cache_Controller.Writeback_Ack::total      9147623                      
system.ruby.L1Cache_Controller.I.Load    |     4044511    100.00%    100.00% |           0      0.00%    100.00% |           0      0.00%    100.00% |           0      0.00%    100.00% |           0      0.00%    100.00% |           0      0.00%    100.00% |           0      0.00%    100.00% |           0      0.00%    100.00%
system.ruby.L1Cache_Controller.I.Load::total      4044511                      
system.ruby.L1Cache_Controller.I.Ifetch  |     3555867    100.00%    100.00% |           0      0.00%    100.00% |           0      0.00%    100.00% |           0      0.00%    100.00% |           0      0.00%    100.00% |           0      0.00%    100.00% |           0      0.00%    100.00% |           0      0.00%    100.00%
system.ruby.L1Cache_Controller.I.Ifetch::total      3555867                      
system.ruby.L1Cache_Controller.I.Store   |     1547245    100.00%    100.00% |           0      0.00%    100.00% |           0      0.00%    100.00% |           0      0.00%    100.00% |           0      0.00%    100.00% |           0      0.00%    100.00% |           0      0.00%    100.00% |           0      0.00%    100.00%
system.ruby.L1Cache_Controller.I.Store::total      1547245                      
system.ruby.L1Cache_Controller.M.Load    |    98638256    100.00%    100.00% |           0      0.00%    100.00% |           0      0.00%    100.00% |           0      0.00%    100.00% |           0      0.00%    100.00% |           0      0.00%    100.00% |           0      0.00%    100.00% |           0      0.00%    100.00%
system.ruby.L1Cache_Controller.M.Load::total     98638256                      
system.ruby.L1Cache_Controller.M.Ifetch  |   474839809    100.00%    100.00% |           0      0.00%    100.00% |           0      0.00%    100.00% |           0      0.00%    100.00% |           0      0.00%    100.00% |           0      0.00%    100.00% |           0      0.00%    100.00% |           0      0.00%    100.00%
system.ruby.L1Cache_Controller.M.Ifetch::total    474839809                      
system.ruby.L1Cache_Controller.M.Store   |    42114848    100.00%    100.00% |           0      0.00%    100.00% |           0      0.00%    100.00% |           0      0.00%    100.00% |           0      0.00%    100.00% |           0      0.00%    100.00% |           0      0.00%    100.00% |           0      0.00%    100.00%
system.ruby.L1Cache_Controller.M.Store::total     42114848                      
system.ruby.L1Cache_Controller.M.Inv     |         219    100.00%    100.00% |           0      0.00%    100.00% |           0      0.00%    100.00% |           0      0.00%    100.00% |           0      0.00%    100.00% |           0      0.00%    100.00% |           0      0.00%    100.00% |           0      0.00%    100.00%
system.ruby.L1Cache_Controller.M.Inv::total          219                      
system.ruby.L1Cache_Controller.M.Replacement |     9147404    100.00%    100.00% |           0      0.00%    100.00% |           0      0.00%    100.00% |           0      0.00%    100.00% |           0      0.00%    100.00% |           0      0.00%    100.00% |           0      0.00%    100.00% |           0      0.00%    100.00%
system.ruby.L1Cache_Controller.M.Replacement::total      9147404                      
system.ruby.L1Cache_Controller.MI.Inv    |         219    100.00%    100.00% |           0      0.00%    100.00% |           0      0.00%    100.00% |           0      0.00%    100.00% |           0      0.00%    100.00% |           0      0.00%    100.00% |           0      0.00%    100.00% |           0      0.00%    100.00%
system.ruby.L1Cache_Controller.MI.Inv::total          219                      
system.ruby.L1Cache_Controller.MI.Writeback_Ack |     9147623    100.00%    100.00% |           0      0.00%    100.00% |           0      0.00%    100.00% |           0      0.00%    100.00% |           0      0.00%    100.00% |           0      0.00%    100.00% |           0      0.00%    100.00% |           0      0.00%    100.00%
system.ruby.L1Cache_Controller.MI.Writeback_Ack::total      9147623                      
system.ruby.L1Cache_Controller.IS.Data   |     7600378    100.00%    100.00% |           0      0.00%    100.00% |           0      0.00%    100.00% |           0      0.00%    100.00% |           0      0.00%    100.00% |           0      0.00%    100.00% |           0      0.00%    100.00% |           0      0.00%    100.00%
system.ruby.L1Cache_Controller.IS.Data::total      7600378                      
system.ruby.L1Cache_Controller.IM.Data   |     1547245    100.00%    100.00% |           0      0.00%    100.00% |           0      0.00%    100.00% |           0      0.00%    100.00% |           0      0.00%    100.00% |           0      0.00%    100.00% |           0      0.00%    100.00% |           0      0.00%    100.00%
system.ruby.L1Cache_Controller.IM.Data::total      1547245                      

---------- End Simulation Statistics   ----------
