
---------- Begin Simulation Statistics ----------
sim_seconds                                  0.322942                       # Number of seconds simulated
sim_ticks                                322941673000                       # Number of ticks simulated
final_tick                               5545085358000                       # Number of ticks from beginning of simulation (restored from checkpoints and never reset)
sim_freq                                 1000000000000                       # Frequency of simulated ticks
host_inst_rate                                 577356                       # Simulator instruction rate (inst/s)
host_op_rate                                  1075281                       # Simulator op (including micro ops) rate (op/s)
host_tick_rate                              621508209                       # Simulator tick rate (ticks/s)
host_mem_usage                                1752424                       # Number of bytes of host memory used
host_seconds                                   519.61                       # Real time elapsed on the host
sim_insts                                   300000001                       # Number of instructions simulated
sim_ops                                     558726432                       # Number of ops (including micro ops) simulated
system.voltage_domain.voltage                       1                       # Voltage in Volts
system.clk_domain.clock                          1000                       # Clock period in ticks
system.mem_ctrls0.pwrStateResidencyTicks::UNDEFINED 5545085358000                       # Cumulative time (in ticks) in various power states
system.mem_ctrls0.bytes_read::ruby.dir_cntrl0      1970240                       # Number of bytes read from this memory
system.mem_ctrls0.bytes_read::total           1970240                       # Number of bytes read from this memory
system.mem_ctrls0.bytes_written::ruby.dir_cntrl0      2124672                       # Number of bytes written to this memory
system.mem_ctrls0.bytes_written::total        2124672                       # Number of bytes written to this memory
system.mem_ctrls0.num_reads::ruby.dir_cntrl0        30785                       # Number of read requests responded to by this memory
system.mem_ctrls0.num_reads::total              30785                       # Number of read requests responded to by this memory
system.mem_ctrls0.num_writes::ruby.dir_cntrl0        33198                       # Number of write requests responded to by this memory
system.mem_ctrls0.num_writes::total             33198                       # Number of write requests responded to by this memory
system.mem_ctrls0.bw_read::ruby.dir_cntrl0      6100916                       # Total read bandwidth from this memory (bytes/s)
system.mem_ctrls0.bw_read::total              6100916                       # Total read bandwidth from this memory (bytes/s)
system.mem_ctrls0.bw_write::ruby.dir_cntrl0      6579120                       # Write bandwidth from this memory (bytes/s)
system.mem_ctrls0.bw_write::total             6579120                       # Write bandwidth from this memory (bytes/s)
system.mem_ctrls0.bw_total::ruby.dir_cntrl0     12680036                       # Total bandwidth to/from this memory (bytes/s)
system.mem_ctrls0.bw_total::total            12680036                       # Total bandwidth to/from this memory (bytes/s)
system.mem_ctrls0.readReqs                      30785                       # Number of read requests accepted
system.mem_ctrls0.writeReqs                     33198                       # Number of write requests accepted
system.mem_ctrls0.readBursts                    30785                       # Number of DRAM read bursts, including those serviced by the write queue
system.mem_ctrls0.writeBursts                   33198                       # Number of DRAM write bursts, including those merged in the write queue
system.mem_ctrls0.bytesReadDRAM               1949120                       # Total number of bytes read from DRAM
system.mem_ctrls0.bytesReadWrQ                  21120                       # Total number of bytes read from write queue
system.mem_ctrls0.bytesWritten                2118336                       # Total number of bytes written to DRAM
system.mem_ctrls0.bytesReadSys                1970240                       # Total read bytes from the system interface side
system.mem_ctrls0.bytesWrittenSys             2124672                       # Total written bytes from the system interface side
system.mem_ctrls0.servicedByWrQ                   330                       # Number of DRAM read bursts serviced by the write queue
system.mem_ctrls0.mergedWrBursts                   92                       # Number of DRAM write bursts merged with an existing one
system.mem_ctrls0.neitherReadNorWriteReqs            0                       # Number of requests that are neither read nor write
system.mem_ctrls0.perBankRdBursts::0             1894                       # Per bank write bursts
system.mem_ctrls0.perBankRdBursts::1             2076                       # Per bank write bursts
system.mem_ctrls0.perBankRdBursts::2             1895                       # Per bank write bursts
system.mem_ctrls0.perBankRdBursts::3             1968                       # Per bank write bursts
system.mem_ctrls0.perBankRdBursts::4             1916                       # Per bank write bursts
system.mem_ctrls0.perBankRdBursts::5             1872                       # Per bank write bursts
system.mem_ctrls0.perBankRdBursts::6             1846                       # Per bank write bursts
system.mem_ctrls0.perBankRdBursts::7             1835                       # Per bank write bursts
system.mem_ctrls0.perBankRdBursts::8             1839                       # Per bank write bursts
system.mem_ctrls0.perBankRdBursts::9             1920                       # Per bank write bursts
system.mem_ctrls0.perBankRdBursts::10            1936                       # Per bank write bursts
system.mem_ctrls0.perBankRdBursts::11            1834                       # Per bank write bursts
system.mem_ctrls0.perBankRdBursts::12            1881                       # Per bank write bursts
system.mem_ctrls0.perBankRdBursts::13            1882                       # Per bank write bursts
system.mem_ctrls0.perBankRdBursts::14            1953                       # Per bank write bursts
system.mem_ctrls0.perBankRdBursts::15            1908                       # Per bank write bursts
system.mem_ctrls0.perBankWrBursts::0             2054                       # Per bank write bursts
system.mem_ctrls0.perBankWrBursts::1             2002                       # Per bank write bursts
system.mem_ctrls0.perBankWrBursts::2             2137                       # Per bank write bursts
system.mem_ctrls0.perBankWrBursts::3             1981                       # Per bank write bursts
system.mem_ctrls0.perBankWrBursts::4             1866                       # Per bank write bursts
system.mem_ctrls0.perBankWrBursts::5             1924                       # Per bank write bursts
system.mem_ctrls0.perBankWrBursts::6             1836                       # Per bank write bursts
system.mem_ctrls0.perBankWrBursts::7             2001                       # Per bank write bursts
system.mem_ctrls0.perBankWrBursts::8             2330                       # Per bank write bursts
system.mem_ctrls0.perBankWrBursts::9             2262                       # Per bank write bursts
system.mem_ctrls0.perBankWrBursts::10            2213                       # Per bank write bursts
system.mem_ctrls0.perBankWrBursts::11            2212                       # Per bank write bursts
system.mem_ctrls0.perBankWrBursts::12            2066                       # Per bank write bursts
system.mem_ctrls0.perBankWrBursts::13            2118                       # Per bank write bursts
system.mem_ctrls0.perBankWrBursts::14            2087                       # Per bank write bursts
system.mem_ctrls0.perBankWrBursts::15            2010                       # Per bank write bursts
system.mem_ctrls0.numRdRetry                        0                       # Number of times read queue was full causing retry
system.mem_ctrls0.numWrRetry                       19                       # Number of times write queue was full causing retry
system.mem_ctrls0.totGap                 323827463000                       # Total gap between requests
system.mem_ctrls0.readPktSize::0                    0                       # Read request sizes (log2)
system.mem_ctrls0.readPktSize::1                    0                       # Read request sizes (log2)
system.mem_ctrls0.readPktSize::2                    0                       # Read request sizes (log2)
system.mem_ctrls0.readPktSize::3                    0                       # Read request sizes (log2)
system.mem_ctrls0.readPktSize::4                    0                       # Read request sizes (log2)
system.mem_ctrls0.readPktSize::5                    0                       # Read request sizes (log2)
system.mem_ctrls0.readPktSize::6                30785                       # Read request sizes (log2)
system.mem_ctrls0.writePktSize::0                   0                       # Write request sizes (log2)
system.mem_ctrls0.writePktSize::1                   0                       # Write request sizes (log2)
system.mem_ctrls0.writePktSize::2                   0                       # Write request sizes (log2)
system.mem_ctrls0.writePktSize::3                   0                       # Write request sizes (log2)
system.mem_ctrls0.writePktSize::4                   0                       # Write request sizes (log2)
system.mem_ctrls0.writePktSize::5                   0                       # Write request sizes (log2)
system.mem_ctrls0.writePktSize::6               33198                       # Write request sizes (log2)
system.mem_ctrls0.rdQLenPdf::0                  30453                       # What read queue length does an incoming req see
system.mem_ctrls0.rdQLenPdf::1                      2                       # What read queue length does an incoming req see
system.mem_ctrls0.rdQLenPdf::2                      0                       # What read queue length does an incoming req see
system.mem_ctrls0.rdQLenPdf::3                      0                       # What read queue length does an incoming req see
system.mem_ctrls0.rdQLenPdf::4                      0                       # What read queue length does an incoming req see
system.mem_ctrls0.rdQLenPdf::5                      0                       # What read queue length does an incoming req see
system.mem_ctrls0.rdQLenPdf::6                      0                       # What read queue length does an incoming req see
system.mem_ctrls0.rdQLenPdf::7                      0                       # What read queue length does an incoming req see
system.mem_ctrls0.rdQLenPdf::8                      0                       # What read queue length does an incoming req see
system.mem_ctrls0.rdQLenPdf::9                      0                       # What read queue length does an incoming req see
system.mem_ctrls0.rdQLenPdf::10                     0                       # What read queue length does an incoming req see
system.mem_ctrls0.rdQLenPdf::11                     0                       # What read queue length does an incoming req see
system.mem_ctrls0.rdQLenPdf::12                     0                       # What read queue length does an incoming req see
system.mem_ctrls0.rdQLenPdf::13                     0                       # What read queue length does an incoming req see
system.mem_ctrls0.rdQLenPdf::14                     0                       # What read queue length does an incoming req see
system.mem_ctrls0.rdQLenPdf::15                     0                       # What read queue length does an incoming req see
system.mem_ctrls0.rdQLenPdf::16                     0                       # What read queue length does an incoming req see
system.mem_ctrls0.rdQLenPdf::17                     0                       # What read queue length does an incoming req see
system.mem_ctrls0.rdQLenPdf::18                     0                       # What read queue length does an incoming req see
system.mem_ctrls0.rdQLenPdf::19                     0                       # What read queue length does an incoming req see
system.mem_ctrls0.rdQLenPdf::20                     0                       # What read queue length does an incoming req see
system.mem_ctrls0.rdQLenPdf::21                     0                       # What read queue length does an incoming req see
system.mem_ctrls0.rdQLenPdf::22                     0                       # What read queue length does an incoming req see
system.mem_ctrls0.rdQLenPdf::23                     0                       # What read queue length does an incoming req see
system.mem_ctrls0.rdQLenPdf::24                     0                       # What read queue length does an incoming req see
system.mem_ctrls0.rdQLenPdf::25                     0                       # What read queue length does an incoming req see
system.mem_ctrls0.rdQLenPdf::26                     0                       # What read queue length does an incoming req see
system.mem_ctrls0.rdQLenPdf::27                     0                       # What read queue length does an incoming req see
system.mem_ctrls0.rdQLenPdf::28                     0                       # What read queue length does an incoming req see
system.mem_ctrls0.rdQLenPdf::29                     0                       # What read queue length does an incoming req see
system.mem_ctrls0.rdQLenPdf::30                     0                       # What read queue length does an incoming req see
system.mem_ctrls0.rdQLenPdf::31                     0                       # What read queue length does an incoming req see
system.mem_ctrls0.wrQLenPdf::0                      0                       # What write queue length does an incoming req see
system.mem_ctrls0.wrQLenPdf::1                      0                       # What write queue length does an incoming req see
system.mem_ctrls0.wrQLenPdf::2                      0                       # What write queue length does an incoming req see
system.mem_ctrls0.wrQLenPdf::3                      0                       # What write queue length does an incoming req see
system.mem_ctrls0.wrQLenPdf::4                      0                       # What write queue length does an incoming req see
system.mem_ctrls0.wrQLenPdf::5                      0                       # What write queue length does an incoming req see
system.mem_ctrls0.wrQLenPdf::6                      0                       # What write queue length does an incoming req see
system.mem_ctrls0.wrQLenPdf::7                      0                       # What write queue length does an incoming req see
system.mem_ctrls0.wrQLenPdf::8                      0                       # What write queue length does an incoming req see
system.mem_ctrls0.wrQLenPdf::9                      0                       # What write queue length does an incoming req see
system.mem_ctrls0.wrQLenPdf::10                     0                       # What write queue length does an incoming req see
system.mem_ctrls0.wrQLenPdf::11                     0                       # What write queue length does an incoming req see
system.mem_ctrls0.wrQLenPdf::12                     0                       # What write queue length does an incoming req see
system.mem_ctrls0.wrQLenPdf::13                     0                       # What write queue length does an incoming req see
system.mem_ctrls0.wrQLenPdf::14                     0                       # What write queue length does an incoming req see
system.mem_ctrls0.wrQLenPdf::15                   153                       # What write queue length does an incoming req see
system.mem_ctrls0.wrQLenPdf::16                   227                       # What write queue length does an incoming req see
system.mem_ctrls0.wrQLenPdf::17                  1891                       # What write queue length does an incoming req see
system.mem_ctrls0.wrQLenPdf::18                  1930                       # What write queue length does an incoming req see
system.mem_ctrls0.wrQLenPdf::19                  1969                       # What write queue length does an incoming req see
system.mem_ctrls0.wrQLenPdf::20                  1955                       # What write queue length does an incoming req see
system.mem_ctrls0.wrQLenPdf::21                  1947                       # What write queue length does an incoming req see
system.mem_ctrls0.wrQLenPdf::22                  2008                       # What write queue length does an incoming req see
system.mem_ctrls0.wrQLenPdf::23                  1982                       # What write queue length does an incoming req see
system.mem_ctrls0.wrQLenPdf::24                  2025                       # What write queue length does an incoming req see
system.mem_ctrls0.wrQLenPdf::25                  2079                       # What write queue length does an incoming req see
system.mem_ctrls0.wrQLenPdf::26                  2004                       # What write queue length does an incoming req see
system.mem_ctrls0.wrQLenPdf::27                  1949                       # What write queue length does an incoming req see
system.mem_ctrls0.wrQLenPdf::28                  1961                       # What write queue length does an incoming req see
system.mem_ctrls0.wrQLenPdf::29                  1912                       # What write queue length does an incoming req see
system.mem_ctrls0.wrQLenPdf::30                  1886                       # What write queue length does an incoming req see
system.mem_ctrls0.wrQLenPdf::31                  1874                       # What write queue length does an incoming req see
system.mem_ctrls0.wrQLenPdf::32                  1882                       # What write queue length does an incoming req see
system.mem_ctrls0.wrQLenPdf::33                    77                       # What write queue length does an incoming req see
system.mem_ctrls0.wrQLenPdf::34                    73                       # What write queue length does an incoming req see
system.mem_ctrls0.wrQLenPdf::35                    66                       # What write queue length does an incoming req see
system.mem_ctrls0.wrQLenPdf::36                    60                       # What write queue length does an incoming req see
system.mem_ctrls0.wrQLenPdf::37                    64                       # What write queue length does an incoming req see
system.mem_ctrls0.wrQLenPdf::38                    56                       # What write queue length does an incoming req see
system.mem_ctrls0.wrQLenPdf::39                    56                       # What write queue length does an incoming req see
system.mem_ctrls0.wrQLenPdf::40                    59                       # What write queue length does an incoming req see
system.mem_ctrls0.wrQLenPdf::41                    60                       # What write queue length does an incoming req see
system.mem_ctrls0.wrQLenPdf::42                    62                       # What write queue length does an incoming req see
system.mem_ctrls0.wrQLenPdf::43                    63                       # What write queue length does an incoming req see
system.mem_ctrls0.wrQLenPdf::44                    58                       # What write queue length does an incoming req see
system.mem_ctrls0.wrQLenPdf::45                    56                       # What write queue length does an incoming req see
system.mem_ctrls0.wrQLenPdf::46                    51                       # What write queue length does an incoming req see
system.mem_ctrls0.wrQLenPdf::47                    47                       # What write queue length does an incoming req see
system.mem_ctrls0.wrQLenPdf::48                    50                       # What write queue length does an incoming req see
system.mem_ctrls0.wrQLenPdf::49                    44                       # What write queue length does an incoming req see
system.mem_ctrls0.wrQLenPdf::50                    49                       # What write queue length does an incoming req see
system.mem_ctrls0.wrQLenPdf::51                    44                       # What write queue length does an incoming req see
system.mem_ctrls0.wrQLenPdf::52                    43                       # What write queue length does an incoming req see
system.mem_ctrls0.wrQLenPdf::53                    45                       # What write queue length does an incoming req see
system.mem_ctrls0.wrQLenPdf::54                    44                       # What write queue length does an incoming req see
system.mem_ctrls0.wrQLenPdf::55                    36                       # What write queue length does an incoming req see
system.mem_ctrls0.wrQLenPdf::56                    32                       # What write queue length does an incoming req see
system.mem_ctrls0.wrQLenPdf::57                    35                       # What write queue length does an incoming req see
system.mem_ctrls0.wrQLenPdf::58                    30                       # What write queue length does an incoming req see
system.mem_ctrls0.wrQLenPdf::59                    23                       # What write queue length does an incoming req see
system.mem_ctrls0.wrQLenPdf::60                    20                       # What write queue length does an incoming req see
system.mem_ctrls0.wrQLenPdf::61                    16                       # What write queue length does an incoming req see
system.mem_ctrls0.wrQLenPdf::62                    20                       # What write queue length does an incoming req see
system.mem_ctrls0.wrQLenPdf::63                    33                       # What write queue length does an incoming req see
system.mem_ctrls0.bytesPerActivate::samples        16130                       # Bytes accessed per row activation
system.mem_ctrls0.bytesPerActivate::mean   252.167142                       # Bytes accessed per row activation
system.mem_ctrls0.bytesPerActivate::gmean   180.830508                       # Bytes accessed per row activation
system.mem_ctrls0.bytesPerActivate::stdev   213.044487                       # Bytes accessed per row activation
system.mem_ctrls0.bytesPerActivate::0-127         4664     28.92%     28.92% # Bytes accessed per row activation
system.mem_ctrls0.bytesPerActivate::128-255         4458     27.64%     56.55% # Bytes accessed per row activation
system.mem_ctrls0.bytesPerActivate::256-383         2581     16.00%     72.55% # Bytes accessed per row activation
system.mem_ctrls0.bytesPerActivate::384-511         2709     16.79%     89.35% # Bytes accessed per row activation
system.mem_ctrls0.bytesPerActivate::512-639          801      4.97%     94.31% # Bytes accessed per row activation
system.mem_ctrls0.bytesPerActivate::640-767          267      1.66%     95.97% # Bytes accessed per row activation
system.mem_ctrls0.bytesPerActivate::768-895          147      0.91%     96.88% # Bytes accessed per row activation
system.mem_ctrls0.bytesPerActivate::896-1023          123      0.76%     97.64% # Bytes accessed per row activation
system.mem_ctrls0.bytesPerActivate::1024-1151          380      2.36%    100.00% # Bytes accessed per row activation
system.mem_ctrls0.bytesPerActivate::total        16130                       # Bytes accessed per row activation
system.mem_ctrls0.rdPerTurnAround::samples         1845                       # Reads before turning the bus around for writes
system.mem_ctrls0.rdPerTurnAround::mean     16.503523                       # Reads before turning the bus around for writes
system.mem_ctrls0.rdPerTurnAround::stdev     7.045684                       # Reads before turning the bus around for writes
system.mem_ctrls0.rdPerTurnAround::0-3            168      9.11%      9.11% # Reads before turning the bus around for writes
system.mem_ctrls0.rdPerTurnAround::4-7             21      1.14%     10.24% # Reads before turning the bus around for writes
system.mem_ctrls0.rdPerTurnAround::8-11            24      1.30%     11.54% # Reads before turning the bus around for writes
system.mem_ctrls0.rdPerTurnAround::12-15           17      0.92%     12.47% # Reads before turning the bus around for writes
system.mem_ctrls0.rdPerTurnAround::16-19         1309     70.95%     83.41% # Reads before turning the bus around for writes
system.mem_ctrls0.rdPerTurnAround::20-23          187     10.14%     93.55% # Reads before turning the bus around for writes
system.mem_ctrls0.rdPerTurnAround::24-27           54      2.93%     96.48% # Reads before turning the bus around for writes
system.mem_ctrls0.rdPerTurnAround::28-31           29      1.57%     98.05% # Reads before turning the bus around for writes
system.mem_ctrls0.rdPerTurnAround::32-35           15      0.81%     98.86% # Reads before turning the bus around for writes
system.mem_ctrls0.rdPerTurnAround::36-39            3      0.16%     99.02% # Reads before turning the bus around for writes
system.mem_ctrls0.rdPerTurnAround::40-43            7      0.38%     99.40% # Reads before turning the bus around for writes
system.mem_ctrls0.rdPerTurnAround::44-47            2      0.11%     99.51% # Reads before turning the bus around for writes
system.mem_ctrls0.rdPerTurnAround::48-51            3      0.16%     99.67% # Reads before turning the bus around for writes
system.mem_ctrls0.rdPerTurnAround::56-59            1      0.05%     99.73% # Reads before turning the bus around for writes
system.mem_ctrls0.rdPerTurnAround::64-67            1      0.05%     99.78% # Reads before turning the bus around for writes
system.mem_ctrls0.rdPerTurnAround::68-71            1      0.05%     99.84% # Reads before turning the bus around for writes
system.mem_ctrls0.rdPerTurnAround::72-75            2      0.11%     99.95% # Reads before turning the bus around for writes
system.mem_ctrls0.rdPerTurnAround::84-87            1      0.05%    100.00% # Reads before turning the bus around for writes
system.mem_ctrls0.rdPerTurnAround::total         1845                       # Reads before turning the bus around for writes
system.mem_ctrls0.wrPerTurnAround::samples         1845                       # Writes before turning the bus around for reads
system.mem_ctrls0.wrPerTurnAround::mean     17.939837                       # Writes before turning the bus around for reads
system.mem_ctrls0.wrPerTurnAround::gmean    17.204059                       # Writes before turning the bus around for reads
system.mem_ctrls0.wrPerTurnAround::stdev     7.567495                       # Writes before turning the bus around for reads
system.mem_ctrls0.wrPerTurnAround::16-19         1673     90.68%     90.68% # Writes before turning the bus around for reads
system.mem_ctrls0.wrPerTurnAround::20-23           16      0.87%     91.54% # Writes before turning the bus around for reads
system.mem_ctrls0.wrPerTurnAround::24-27           29      1.57%     93.12% # Writes before turning the bus around for reads
system.mem_ctrls0.wrPerTurnAround::28-31           43      2.33%     95.45% # Writes before turning the bus around for reads
system.mem_ctrls0.wrPerTurnAround::32-35           14      0.76%     96.21% # Writes before turning the bus around for reads
system.mem_ctrls0.wrPerTurnAround::36-39           15      0.81%     97.02% # Writes before turning the bus around for reads
system.mem_ctrls0.wrPerTurnAround::40-43           16      0.87%     97.89% # Writes before turning the bus around for reads
system.mem_ctrls0.wrPerTurnAround::44-47            5      0.27%     98.16% # Writes before turning the bus around for reads
system.mem_ctrls0.wrPerTurnAround::48-51           18      0.98%     99.13% # Writes before turning the bus around for reads
system.mem_ctrls0.wrPerTurnAround::52-55            3      0.16%     99.30% # Writes before turning the bus around for reads
system.mem_ctrls0.wrPerTurnAround::56-59            2      0.11%     99.40% # Writes before turning the bus around for reads
system.mem_ctrls0.wrPerTurnAround::60-63            1      0.05%     99.46% # Writes before turning the bus around for reads
system.mem_ctrls0.wrPerTurnAround::64-67            1      0.05%     99.51% # Writes before turning the bus around for reads
system.mem_ctrls0.wrPerTurnAround::68-71            3      0.16%     99.67% # Writes before turning the bus around for reads
system.mem_ctrls0.wrPerTurnAround::72-75            2      0.11%     99.78% # Writes before turning the bus around for reads
system.mem_ctrls0.wrPerTurnAround::80-83            1      0.05%     99.84% # Writes before turning the bus around for reads
system.mem_ctrls0.wrPerTurnAround::84-87            1      0.05%     99.89% # Writes before turning the bus around for reads
system.mem_ctrls0.wrPerTurnAround::96-99            1      0.05%     99.95% # Writes before turning the bus around for reads
system.mem_ctrls0.wrPerTurnAround::136-139            1      0.05%    100.00% # Writes before turning the bus around for reads
system.mem_ctrls0.wrPerTurnAround::total         1845                       # Writes before turning the bus around for reads
system.mem_ctrls0.totQLat                  2338589250                       # Total ticks spent queuing
system.mem_ctrls0.totMemAccLat             2909620500                       # Total ticks spent from burst creation until serviced by the DRAM
system.mem_ctrls0.totBusLat                 152275000                       # Total ticks spent in databus transfers
system.mem_ctrls0.avgQLat                    76788.35                       # Average queueing delay per DRAM burst
system.mem_ctrls0.avgBusLat                   5000.00                       # Average bus latency per DRAM burst
system.mem_ctrls0.avgMemAccLat               95538.35                       # Average memory access latency per DRAM burst
system.mem_ctrls0.avgRdBW                        6.04                       # Average DRAM read bandwidth in MiByte/s
system.mem_ctrls0.avgWrBW                        6.56                       # Average achieved write bandwidth in MiByte/s
system.mem_ctrls0.avgRdBWSys                     6.10                       # Average system read bandwidth in MiByte/s
system.mem_ctrls0.avgWrBWSys                     6.58                       # Average system write bandwidth in MiByte/s
system.mem_ctrls0.peakBW                     12800.00                       # Theoretical peak bandwidth in MiByte/s
system.mem_ctrls0.busUtil                        0.10                       # Data bus utilization in percentage
system.mem_ctrls0.busUtilRead                    0.05                       # Data bus utilization in percentage for reads
system.mem_ctrls0.busUtilWrite                   0.05                       # Data bus utilization in percentage for writes
system.mem_ctrls0.avgRdQLen                      1.00                       # Average read queue length when enqueuing
system.mem_ctrls0.avgWrQLen                     25.16                       # Average write queue length when enqueuing
system.mem_ctrls0.readRowHits                   21770                       # Number of row buffer hits during reads
system.mem_ctrls0.writeRowHits                  25654                       # Number of row buffer hits during writes
system.mem_ctrls0.readRowHitRate                71.48                       # Row buffer hit rate for reads
system.mem_ctrls0.writeRowHitRate               77.49                       # Row buffer hit rate for writes
system.mem_ctrls0.avgGap                   5061148.48                       # Average gap between requests
system.mem_ctrls0.pageHitRate                   74.61                       # Row buffer hit rate, read and write combined
system.mem_ctrls0_0.actEnergy                98189280                       # Energy for activate commands per rank (pJ)
system.mem_ctrls0_0.preEnergy                52188840                       # Energy for precharge commands per rank (pJ)
system.mem_ctrls0_0.readEnergy              230393520                       # Energy for read commands per rank (pJ)
system.mem_ctrls0_0.writeEnergy             106221780                       # Energy for write commands per rank (pJ)
system.mem_ctrls0_0.refreshEnergy        9490656240.000002                       # Energy for refresh commands per rank (pJ)
system.mem_ctrls0_0.actBackEnergy          2856552720                       # Energy for active background per rank (pJ)
system.mem_ctrls0_0.preBackEnergy           577174080                       # Energy for precharge background per rank (pJ)
system.mem_ctrls0_0.actPowerDownEnergy    22537707090                       # Energy for active power-down per rank (pJ)
system.mem_ctrls0_0.prePowerDownEnergy    13675696800                       # Energy for precharge power-down per rank (pJ)
system.mem_ctrls0_0.selfRefreshEnergy    1310636726025                       # Energy for self refresh per rank (pJ)
system.mem_ctrls0_0.totalEnergy          1360265341035                       # Total energy per rank (pJ)
system.mem_ctrls0_0.averagePower           245.310081                       # Core power per rank (mW)
system.mem_ctrls0_0.totalIdleTime        319487969000                       # Total Idle time Per DRAM Rank
system.mem_ctrls0_0.memoryStateTime::IDLE    635900500                       # Time in different power states
system.mem_ctrls0_0.memoryStateTime::REF   2072068000                       # Time in different power states
system.mem_ctrls0_0.memoryStateTime::SREF 276935786250                       # Time in different power states
system.mem_ctrls0_0.memoryStateTime::PRE_PDN  18434884250                       # Time in different power states
system.mem_ctrls0_0.memoryStateTime::ACT   1558618750                       # Time in different power states
system.mem_ctrls0_0.memoryStateTime::ACT_PDN  24212441750                       # Time in different power states
system.mem_ctrls0_1.actEnergy                88800180                       # Energy for activate commands per rank (pJ)
system.mem_ctrls0_1.preEnergy                47198415                       # Energy for precharge commands per rank (pJ)
system.mem_ctrls0_1.readEnergy              227780280                       # Energy for read commands per rank (pJ)
system.mem_ctrls0_1.writeEnergy             108414180                       # Energy for write commands per rank (pJ)
system.mem_ctrls0_1.refreshEnergy        8507846880.000002                       # Energy for refresh commands per rank (pJ)
system.mem_ctrls0_1.actBackEnergy          2748855210                       # Energy for active background per rank (pJ)
system.mem_ctrls0_1.preBackEnergy           498326400                       # Energy for precharge background per rank (pJ)
system.mem_ctrls0_1.actPowerDownEnergy    20983101630                       # Energy for active power-down per rank (pJ)
system.mem_ctrls0_1.prePowerDownEnergy    11780459520                       # Energy for precharge power-down per rank (pJ)
system.mem_ctrls0_1.selfRefreshEnergy    1312465989330                       # Energy for self refresh per rank (pJ)
system.mem_ctrls0_1.totalEnergy          1357459459425                       # Total energy per rank (pJ)
system.mem_ctrls0_1.averagePower           244.804069                       # Core power per rank (mW)
system.mem_ctrls0_1.totalIdleTime        322017450250                       # Total Idle time Per DRAM Rank
system.mem_ctrls0_1.memoryStateTime::IDLE    540117000                       # Time in different power states
system.mem_ctrls0_1.memoryStateTime::REF   1942506000                       # Time in different power states
system.mem_ctrls0_1.memoryStateTime::SREF 281813466000                       # Time in different power states
system.mem_ctrls0_1.memoryStateTime::PRE_PDN  16800220500                       # Time in different power states
system.mem_ctrls0_1.memoryStateTime::ACT   1747185750                       # Time in different power states
system.mem_ctrls0_1.memoryStateTime::ACT_PDN  23429524500                       # Time in different power states
system.mem_ctrls1.pwrStateResidencyTicks::UNDEFINED 5545085358000                       # Cumulative time (in ticks) in various power states
system.mem_ctrls1.bytes_read::ruby.dir_cntrl1      1953408                       # Number of bytes read from this memory
system.mem_ctrls1.bytes_read::total           1953408                       # Number of bytes read from this memory
system.mem_ctrls1.bytes_written::ruby.dir_cntrl1      2125696                       # Number of bytes written to this memory
system.mem_ctrls1.bytes_written::total        2125696                       # Number of bytes written to this memory
system.mem_ctrls1.num_reads::ruby.dir_cntrl1        30522                       # Number of read requests responded to by this memory
system.mem_ctrls1.num_reads::total              30522                       # Number of read requests responded to by this memory
system.mem_ctrls1.num_writes::ruby.dir_cntrl1        33214                       # Number of write requests responded to by this memory
system.mem_ctrls1.num_writes::total             33214                       # Number of write requests responded to by this memory
system.mem_ctrls1.bw_read::ruby.dir_cntrl1      6048795                       # Total read bandwidth from this memory (bytes/s)
system.mem_ctrls1.bw_read::total              6048795                       # Total read bandwidth from this memory (bytes/s)
system.mem_ctrls1.bw_write::ruby.dir_cntrl1      6582291                       # Write bandwidth from this memory (bytes/s)
system.mem_ctrls1.bw_write::total             6582291                       # Write bandwidth from this memory (bytes/s)
system.mem_ctrls1.bw_total::ruby.dir_cntrl1     12631086                       # Total bandwidth to/from this memory (bytes/s)
system.mem_ctrls1.bw_total::total            12631086                       # Total bandwidth to/from this memory (bytes/s)
system.mem_ctrls1.readReqs                      30522                       # Number of read requests accepted
system.mem_ctrls1.writeReqs                     33214                       # Number of write requests accepted
system.mem_ctrls1.readBursts                    30522                       # Number of DRAM read bursts, including those serviced by the write queue
system.mem_ctrls1.writeBursts                   33214                       # Number of DRAM write bursts, including those merged in the write queue
system.mem_ctrls1.bytesReadDRAM               1939200                       # Total number of bytes read from DRAM
system.mem_ctrls1.bytesReadWrQ                  14208                       # Total number of bytes read from write queue
system.mem_ctrls1.bytesWritten                2125312                       # Total number of bytes written to DRAM
system.mem_ctrls1.bytesReadSys                1953408                       # Total read bytes from the system interface side
system.mem_ctrls1.bytesWrittenSys             2125696                       # Total written bytes from the system interface side
system.mem_ctrls1.servicedByWrQ                   222                       # Number of DRAM read bursts serviced by the write queue
system.mem_ctrls1.mergedWrBursts                    0                       # Number of DRAM write bursts merged with an existing one
system.mem_ctrls1.neitherReadNorWriteReqs            0                       # Number of requests that are neither read nor write
system.mem_ctrls1.perBankRdBursts::0             1891                       # Per bank write bursts
system.mem_ctrls1.perBankRdBursts::1             1931                       # Per bank write bursts
system.mem_ctrls1.perBankRdBursts::2             1897                       # Per bank write bursts
system.mem_ctrls1.perBankRdBursts::3             1955                       # Per bank write bursts
system.mem_ctrls1.perBankRdBursts::4             1901                       # Per bank write bursts
system.mem_ctrls1.perBankRdBursts::5             1867                       # Per bank write bursts
system.mem_ctrls1.perBankRdBursts::6             1850                       # Per bank write bursts
system.mem_ctrls1.perBankRdBursts::7             1832                       # Per bank write bursts
system.mem_ctrls1.perBankRdBursts::8             1834                       # Per bank write bursts
system.mem_ctrls1.perBankRdBursts::9             1913                       # Per bank write bursts
system.mem_ctrls1.perBankRdBursts::10            1943                       # Per bank write bursts
system.mem_ctrls1.perBankRdBursts::11            1835                       # Per bank write bursts
system.mem_ctrls1.perBankRdBursts::12            1889                       # Per bank write bursts
system.mem_ctrls1.perBankRdBursts::13            1896                       # Per bank write bursts
system.mem_ctrls1.perBankRdBursts::14            1953                       # Per bank write bursts
system.mem_ctrls1.perBankRdBursts::15            1913                       # Per bank write bursts
system.mem_ctrls1.perBankWrBursts::0             2036                       # Per bank write bursts
system.mem_ctrls1.perBankWrBursts::1             1926                       # Per bank write bursts
system.mem_ctrls1.perBankWrBursts::2             2135                       # Per bank write bursts
system.mem_ctrls1.perBankWrBursts::3             1999                       # Per bank write bursts
system.mem_ctrls1.perBankWrBursts::4             1863                       # Per bank write bursts
system.mem_ctrls1.perBankWrBursts::5             1957                       # Per bank write bursts
system.mem_ctrls1.perBankWrBursts::6             1881                       # Per bank write bursts
system.mem_ctrls1.perBankWrBursts::7             2011                       # Per bank write bursts
system.mem_ctrls1.perBankWrBursts::8             2339                       # Per bank write bursts
system.mem_ctrls1.perBankWrBursts::9             2257                       # Per bank write bursts
system.mem_ctrls1.perBankWrBursts::10            2309                       # Per bank write bursts
system.mem_ctrls1.perBankWrBursts::11            2212                       # Per bank write bursts
system.mem_ctrls1.perBankWrBursts::12            2071                       # Per bank write bursts
system.mem_ctrls1.perBankWrBursts::13            2129                       # Per bank write bursts
system.mem_ctrls1.perBankWrBursts::14            2085                       # Per bank write bursts
system.mem_ctrls1.perBankWrBursts::15            1998                       # Per bank write bursts
system.mem_ctrls1.numRdRetry                        0                       # Number of times read queue was full causing retry
system.mem_ctrls1.numWrRetry                       93                       # Number of times write queue was full causing retry
system.mem_ctrls1.totGap                 326240664500                       # Total gap between requests
system.mem_ctrls1.readPktSize::0                    0                       # Read request sizes (log2)
system.mem_ctrls1.readPktSize::1                    0                       # Read request sizes (log2)
system.mem_ctrls1.readPktSize::2                    0                       # Read request sizes (log2)
system.mem_ctrls1.readPktSize::3                    0                       # Read request sizes (log2)
system.mem_ctrls1.readPktSize::4                    0                       # Read request sizes (log2)
system.mem_ctrls1.readPktSize::5                    0                       # Read request sizes (log2)
system.mem_ctrls1.readPktSize::6                30522                       # Read request sizes (log2)
system.mem_ctrls1.writePktSize::0                   0                       # Write request sizes (log2)
system.mem_ctrls1.writePktSize::1                   0                       # Write request sizes (log2)
system.mem_ctrls1.writePktSize::2                   0                       # Write request sizes (log2)
system.mem_ctrls1.writePktSize::3                   0                       # Write request sizes (log2)
system.mem_ctrls1.writePktSize::4                   0                       # Write request sizes (log2)
system.mem_ctrls1.writePktSize::5                   0                       # Write request sizes (log2)
system.mem_ctrls1.writePktSize::6               33214                       # Write request sizes (log2)
system.mem_ctrls1.rdQLenPdf::0                  30299                       # What read queue length does an incoming req see
system.mem_ctrls1.rdQLenPdf::1                      1                       # What read queue length does an incoming req see
system.mem_ctrls1.rdQLenPdf::2                      0                       # What read queue length does an incoming req see
system.mem_ctrls1.rdQLenPdf::3                      0                       # What read queue length does an incoming req see
system.mem_ctrls1.rdQLenPdf::4                      0                       # What read queue length does an incoming req see
system.mem_ctrls1.rdQLenPdf::5                      0                       # What read queue length does an incoming req see
system.mem_ctrls1.rdQLenPdf::6                      0                       # What read queue length does an incoming req see
system.mem_ctrls1.rdQLenPdf::7                      0                       # What read queue length does an incoming req see
system.mem_ctrls1.rdQLenPdf::8                      0                       # What read queue length does an incoming req see
system.mem_ctrls1.rdQLenPdf::9                      0                       # What read queue length does an incoming req see
system.mem_ctrls1.rdQLenPdf::10                     0                       # What read queue length does an incoming req see
system.mem_ctrls1.rdQLenPdf::11                     0                       # What read queue length does an incoming req see
system.mem_ctrls1.rdQLenPdf::12                     0                       # What read queue length does an incoming req see
system.mem_ctrls1.rdQLenPdf::13                     0                       # What read queue length does an incoming req see
system.mem_ctrls1.rdQLenPdf::14                     0                       # What read queue length does an incoming req see
system.mem_ctrls1.rdQLenPdf::15                     0                       # What read queue length does an incoming req see
system.mem_ctrls1.rdQLenPdf::16                     0                       # What read queue length does an incoming req see
system.mem_ctrls1.rdQLenPdf::17                     0                       # What read queue length does an incoming req see
system.mem_ctrls1.rdQLenPdf::18                     0                       # What read queue length does an incoming req see
system.mem_ctrls1.rdQLenPdf::19                     0                       # What read queue length does an incoming req see
system.mem_ctrls1.rdQLenPdf::20                     0                       # What read queue length does an incoming req see
system.mem_ctrls1.rdQLenPdf::21                     0                       # What read queue length does an incoming req see
system.mem_ctrls1.rdQLenPdf::22                     0                       # What read queue length does an incoming req see
system.mem_ctrls1.rdQLenPdf::23                     0                       # What read queue length does an incoming req see
system.mem_ctrls1.rdQLenPdf::24                     0                       # What read queue length does an incoming req see
system.mem_ctrls1.rdQLenPdf::25                     0                       # What read queue length does an incoming req see
system.mem_ctrls1.rdQLenPdf::26                     0                       # What read queue length does an incoming req see
system.mem_ctrls1.rdQLenPdf::27                     0                       # What read queue length does an incoming req see
system.mem_ctrls1.rdQLenPdf::28                     0                       # What read queue length does an incoming req see
system.mem_ctrls1.rdQLenPdf::29                     0                       # What read queue length does an incoming req see
system.mem_ctrls1.rdQLenPdf::30                     0                       # What read queue length does an incoming req see
system.mem_ctrls1.rdQLenPdf::31                     0                       # What read queue length does an incoming req see
system.mem_ctrls1.wrQLenPdf::0                      0                       # What write queue length does an incoming req see
system.mem_ctrls1.wrQLenPdf::1                      0                       # What write queue length does an incoming req see
system.mem_ctrls1.wrQLenPdf::2                      0                       # What write queue length does an incoming req see
system.mem_ctrls1.wrQLenPdf::3                      0                       # What write queue length does an incoming req see
system.mem_ctrls1.wrQLenPdf::4                      0                       # What write queue length does an incoming req see
system.mem_ctrls1.wrQLenPdf::5                      0                       # What write queue length does an incoming req see
system.mem_ctrls1.wrQLenPdf::6                      0                       # What write queue length does an incoming req see
system.mem_ctrls1.wrQLenPdf::7                      0                       # What write queue length does an incoming req see
system.mem_ctrls1.wrQLenPdf::8                      0                       # What write queue length does an incoming req see
system.mem_ctrls1.wrQLenPdf::9                      0                       # What write queue length does an incoming req see
system.mem_ctrls1.wrQLenPdf::10                     0                       # What write queue length does an incoming req see
system.mem_ctrls1.wrQLenPdf::11                     0                       # What write queue length does an incoming req see
system.mem_ctrls1.wrQLenPdf::12                     0                       # What write queue length does an incoming req see
system.mem_ctrls1.wrQLenPdf::13                     0                       # What write queue length does an incoming req see
system.mem_ctrls1.wrQLenPdf::14                     0                       # What write queue length does an incoming req see
system.mem_ctrls1.wrQLenPdf::15                   162                       # What write queue length does an incoming req see
system.mem_ctrls1.wrQLenPdf::16                   219                       # What write queue length does an incoming req see
system.mem_ctrls1.wrQLenPdf::17                  1861                       # What write queue length does an incoming req see
system.mem_ctrls1.wrQLenPdf::18                  1914                       # What write queue length does an incoming req see
system.mem_ctrls1.wrQLenPdf::19                  1954                       # What write queue length does an incoming req see
system.mem_ctrls1.wrQLenPdf::20                  1933                       # What write queue length does an incoming req see
system.mem_ctrls1.wrQLenPdf::21                  1893                       # What write queue length does an incoming req see
system.mem_ctrls1.wrQLenPdf::22                  1951                       # What write queue length does an incoming req see
system.mem_ctrls1.wrQLenPdf::23                  1952                       # What write queue length does an incoming req see
system.mem_ctrls1.wrQLenPdf::24                  1978                       # What write queue length does an incoming req see
system.mem_ctrls1.wrQLenPdf::25                  2035                       # What write queue length does an incoming req see
system.mem_ctrls1.wrQLenPdf::26                  1931                       # What write queue length does an incoming req see
system.mem_ctrls1.wrQLenPdf::27                  1890                       # What write queue length does an incoming req see
system.mem_ctrls1.wrQLenPdf::28                  1881                       # What write queue length does an incoming req see
system.mem_ctrls1.wrQLenPdf::29                  1881                       # What write queue length does an incoming req see
system.mem_ctrls1.wrQLenPdf::30                  1861                       # What write queue length does an incoming req see
system.mem_ctrls1.wrQLenPdf::31                  1853                       # What write queue length does an incoming req see
system.mem_ctrls1.wrQLenPdf::32                  1837                       # What write queue length does an incoming req see
system.mem_ctrls1.wrQLenPdf::33                    85                       # What write queue length does an incoming req see
system.mem_ctrls1.wrQLenPdf::34                    83                       # What write queue length does an incoming req see
system.mem_ctrls1.wrQLenPdf::35                    72                       # What write queue length does an incoming req see
system.mem_ctrls1.wrQLenPdf::36                    72                       # What write queue length does an incoming req see
system.mem_ctrls1.wrQLenPdf::37                    75                       # What write queue length does an incoming req see
system.mem_ctrls1.wrQLenPdf::38                    72                       # What write queue length does an incoming req see
system.mem_ctrls1.wrQLenPdf::39                    69                       # What write queue length does an incoming req see
system.mem_ctrls1.wrQLenPdf::40                    66                       # What write queue length does an incoming req see
system.mem_ctrls1.wrQLenPdf::41                    67                       # What write queue length does an incoming req see
system.mem_ctrls1.wrQLenPdf::42                    72                       # What write queue length does an incoming req see
system.mem_ctrls1.wrQLenPdf::43                    78                       # What write queue length does an incoming req see
system.mem_ctrls1.wrQLenPdf::44                    78                       # What write queue length does an incoming req see
system.mem_ctrls1.wrQLenPdf::45                    83                       # What write queue length does an incoming req see
system.mem_ctrls1.wrQLenPdf::46                    78                       # What write queue length does an incoming req see
system.mem_ctrls1.wrQLenPdf::47                    70                       # What write queue length does an incoming req see
system.mem_ctrls1.wrQLenPdf::48                    67                       # What write queue length does an incoming req see
system.mem_ctrls1.wrQLenPdf::49                    68                       # What write queue length does an incoming req see
system.mem_ctrls1.wrQLenPdf::50                    72                       # What write queue length does an incoming req see
system.mem_ctrls1.wrQLenPdf::51                    81                       # What write queue length does an incoming req see
system.mem_ctrls1.wrQLenPdf::52                    73                       # What write queue length does an incoming req see
system.mem_ctrls1.wrQLenPdf::53                    70                       # What write queue length does an incoming req see
system.mem_ctrls1.wrQLenPdf::54                    72                       # What write queue length does an incoming req see
system.mem_ctrls1.wrQLenPdf::55                    68                       # What write queue length does an incoming req see
system.mem_ctrls1.wrQLenPdf::56                    67                       # What write queue length does an incoming req see
system.mem_ctrls1.wrQLenPdf::57                    68                       # What write queue length does an incoming req see
system.mem_ctrls1.wrQLenPdf::58                    67                       # What write queue length does an incoming req see
system.mem_ctrls1.wrQLenPdf::59                    57                       # What write queue length does an incoming req see
system.mem_ctrls1.wrQLenPdf::60                    49                       # What write queue length does an incoming req see
system.mem_ctrls1.wrQLenPdf::61                    39                       # What write queue length does an incoming req see
system.mem_ctrls1.wrQLenPdf::62                    49                       # What write queue length does an incoming req see
system.mem_ctrls1.wrQLenPdf::63                   141                       # What write queue length does an incoming req see
system.mem_ctrls1.bytesPerActivate::samples        15510                       # Bytes accessed per row activation
system.mem_ctrls1.bytesPerActivate::mean   262.057511                       # Bytes accessed per row activation
system.mem_ctrls1.bytesPerActivate::gmean   185.672585                       # Bytes accessed per row activation
system.mem_ctrls1.bytesPerActivate::stdev   220.727732                       # Bytes accessed per row activation
system.mem_ctrls1.bytesPerActivate::0-127         4615     29.75%     29.75% # Bytes accessed per row activation
system.mem_ctrls1.bytesPerActivate::128-255         3846     24.80%     54.55% # Bytes accessed per row activation
system.mem_ctrls1.bytesPerActivate::256-383         2501     16.13%     70.68% # Bytes accessed per row activation
system.mem_ctrls1.bytesPerActivate::384-511         2453     15.82%     86.49% # Bytes accessed per row activation
system.mem_ctrls1.bytesPerActivate::512-639         1145      7.38%     93.87% # Bytes accessed per row activation
system.mem_ctrls1.bytesPerActivate::640-767          274      1.77%     95.64% # Bytes accessed per row activation
system.mem_ctrls1.bytesPerActivate::768-895          150      0.97%     96.61% # Bytes accessed per row activation
system.mem_ctrls1.bytesPerActivate::896-1023          114      0.74%     97.34% # Bytes accessed per row activation
system.mem_ctrls1.bytesPerActivate::1024-1151          412      2.66%    100.00% # Bytes accessed per row activation
system.mem_ctrls1.bytesPerActivate::total        15510                       # Bytes accessed per row activation
system.mem_ctrls1.rdPerTurnAround::samples         1826                       # Reads before turning the bus around for writes
system.mem_ctrls1.rdPerTurnAround::mean     16.590361                       # Reads before turning the bus around for writes
system.mem_ctrls1.rdPerTurnAround::stdev     6.728292                       # Reads before turning the bus around for writes
system.mem_ctrls1.rdPerTurnAround::0-3            148      8.11%      8.11% # Reads before turning the bus around for writes
system.mem_ctrls1.rdPerTurnAround::4-7             10      0.55%      8.65% # Reads before turning the bus around for writes
system.mem_ctrls1.rdPerTurnAround::8-11            22      1.20%      9.86% # Reads before turning the bus around for writes
system.mem_ctrls1.rdPerTurnAround::12-15           23      1.26%     11.12% # Reads before turning the bus around for writes
system.mem_ctrls1.rdPerTurnAround::16-19         1334     73.06%     84.17% # Reads before turning the bus around for writes
system.mem_ctrls1.rdPerTurnAround::20-23          173      9.47%     93.65% # Reads before turning the bus around for writes
system.mem_ctrls1.rdPerTurnAround::24-27           57      3.12%     96.77% # Reads before turning the bus around for writes
system.mem_ctrls1.rdPerTurnAround::28-31           28      1.53%     98.30% # Reads before turning the bus around for writes
system.mem_ctrls1.rdPerTurnAround::32-35            5      0.27%     98.58% # Reads before turning the bus around for writes
system.mem_ctrls1.rdPerTurnAround::36-39            9      0.49%     99.07% # Reads before turning the bus around for writes
system.mem_ctrls1.rdPerTurnAround::40-43            4      0.22%     99.29% # Reads before turning the bus around for writes
system.mem_ctrls1.rdPerTurnAround::44-47            3      0.16%     99.45% # Reads before turning the bus around for writes
system.mem_ctrls1.rdPerTurnAround::48-51            4      0.22%     99.67% # Reads before turning the bus around for writes
system.mem_ctrls1.rdPerTurnAround::52-55            2      0.11%     99.78% # Reads before turning the bus around for writes
system.mem_ctrls1.rdPerTurnAround::56-59            1      0.05%     99.84% # Reads before turning the bus around for writes
system.mem_ctrls1.rdPerTurnAround::68-71            1      0.05%     99.89% # Reads before turning the bus around for writes
system.mem_ctrls1.rdPerTurnAround::72-75            1      0.05%     99.95% # Reads before turning the bus around for writes
system.mem_ctrls1.rdPerTurnAround::76-79            1      0.05%    100.00% # Reads before turning the bus around for writes
system.mem_ctrls1.rdPerTurnAround::total         1826                       # Reads before turning the bus around for writes
system.mem_ctrls1.wrPerTurnAround::samples         1826                       # Writes before turning the bus around for reads
system.mem_ctrls1.wrPerTurnAround::mean     18.186199                       # Writes before turning the bus around for reads
system.mem_ctrls1.wrPerTurnAround::gmean    17.221906                       # Writes before turning the bus around for reads
system.mem_ctrls1.wrPerTurnAround::stdev     9.442564                       # Writes before turning the bus around for reads
system.mem_ctrls1.wrPerTurnAround::16-19         1675     91.73%     91.73% # Writes before turning the bus around for reads
system.mem_ctrls1.wrPerTurnAround::20-23            8      0.44%     92.17% # Writes before turning the bus around for reads
system.mem_ctrls1.wrPerTurnAround::24-27           18      0.99%     93.15% # Writes before turning the bus around for reads
system.mem_ctrls1.wrPerTurnAround::28-31           34      1.86%     95.02% # Writes before turning the bus around for reads
system.mem_ctrls1.wrPerTurnAround::32-35           14      0.77%     95.78% # Writes before turning the bus around for reads
system.mem_ctrls1.wrPerTurnAround::36-39           15      0.82%     96.60% # Writes before turning the bus around for reads
system.mem_ctrls1.wrPerTurnAround::40-43           13      0.71%     97.32% # Writes before turning the bus around for reads
system.mem_ctrls1.wrPerTurnAround::44-47            5      0.27%     97.59% # Writes before turning the bus around for reads
system.mem_ctrls1.wrPerTurnAround::48-51           18      0.99%     98.58% # Writes before turning the bus around for reads
system.mem_ctrls1.wrPerTurnAround::52-55            1      0.05%     98.63% # Writes before turning the bus around for reads
system.mem_ctrls1.wrPerTurnAround::56-59            1      0.05%     98.69% # Writes before turning the bus around for reads
system.mem_ctrls1.wrPerTurnAround::60-63            1      0.05%     98.74% # Writes before turning the bus around for reads
system.mem_ctrls1.wrPerTurnAround::64-67            5      0.27%     99.01% # Writes before turning the bus around for reads
system.mem_ctrls1.wrPerTurnAround::68-71            2      0.11%     99.12% # Writes before turning the bus around for reads
system.mem_ctrls1.wrPerTurnAround::72-75            4      0.22%     99.34% # Writes before turning the bus around for reads
system.mem_ctrls1.wrPerTurnAround::80-83            3      0.16%     99.51% # Writes before turning the bus around for reads
system.mem_ctrls1.wrPerTurnAround::84-87            1      0.05%     99.56% # Writes before turning the bus around for reads
system.mem_ctrls1.wrPerTurnAround::88-91            1      0.05%     99.62% # Writes before turning the bus around for reads
system.mem_ctrls1.wrPerTurnAround::96-99            2      0.11%     99.73% # Writes before turning the bus around for reads
system.mem_ctrls1.wrPerTurnAround::104-107            2      0.11%     99.84% # Writes before turning the bus around for reads
system.mem_ctrls1.wrPerTurnAround::112-115            1      0.05%     99.89% # Writes before turning the bus around for reads
system.mem_ctrls1.wrPerTurnAround::120-123            1      0.05%     99.95% # Writes before turning the bus around for reads
system.mem_ctrls1.wrPerTurnAround::136-139            1      0.05%    100.00% # Writes before turning the bus around for reads
system.mem_ctrls1.wrPerTurnAround::total         1826                       # Writes before turning the bus around for reads
system.mem_ctrls1.totQLat                  2300937250                       # Total ticks spent queuing
system.mem_ctrls1.totMemAccLat             2869062250                       # Total ticks spent from burst creation until serviced by the DRAM
system.mem_ctrls1.totBusLat                 151500000                       # Total ticks spent in databus transfers
system.mem_ctrls1.avgQLat                    75938.52                       # Average queueing delay per DRAM burst
system.mem_ctrls1.avgBusLat                   5000.00                       # Average bus latency per DRAM burst
system.mem_ctrls1.avgMemAccLat               94688.52                       # Average memory access latency per DRAM burst
system.mem_ctrls1.avgRdBW                        6.00                       # Average DRAM read bandwidth in MiByte/s
system.mem_ctrls1.avgWrBW                        6.58                       # Average achieved write bandwidth in MiByte/s
system.mem_ctrls1.avgRdBWSys                     6.05                       # Average system read bandwidth in MiByte/s
system.mem_ctrls1.avgWrBWSys                     6.58                       # Average system write bandwidth in MiByte/s
system.mem_ctrls1.peakBW                     12800.00                       # Theoretical peak bandwidth in MiByte/s
system.mem_ctrls1.busUtil                        0.10                       # Data bus utilization in percentage
system.mem_ctrls1.busUtilRead                    0.05                       # Data bus utilization in percentage for reads
system.mem_ctrls1.busUtilWrite                   0.05                       # Data bus utilization in percentage for writes
system.mem_ctrls1.avgRdQLen                      1.00                       # Average read queue length when enqueuing
system.mem_ctrls1.avgWrQLen                     25.07                       # Average write queue length when enqueuing
system.mem_ctrls1.readRowHits                   22192                       # Number of row buffer hits during reads
system.mem_ctrls1.writeRowHits                  25806                       # Number of row buffer hits during writes
system.mem_ctrls1.readRowHitRate                73.24                       # Row buffer hit rate for reads
system.mem_ctrls1.writeRowHitRate               77.70                       # Row buffer hit rate for writes
system.mem_ctrls1.avgGap                   5118624.71                       # Average gap between requests
system.mem_ctrls1.pageHitRate                   75.57                       # Row buffer hit rate, read and write combined
system.mem_ctrls1_0.actEnergy                94804920                       # Energy for activate commands per rank (pJ)
system.mem_ctrls1_0.preEnergy                50390010                       # Energy for precharge commands per rank (pJ)
system.mem_ctrls1_0.readEnergy              229129740                       # Energy for read commands per rank (pJ)
system.mem_ctrls1_0.writeEnergy             105986880                       # Energy for write commands per rank (pJ)
system.mem_ctrls1_0.refreshEnergy        9012466320.000002                       # Energy for refresh commands per rank (pJ)
system.mem_ctrls1_0.actBackEnergy          2855413290                       # Energy for active background per rank (pJ)
system.mem_ctrls1_0.preBackEnergy           555516000                       # Energy for precharge background per rank (pJ)
system.mem_ctrls1_0.actPowerDownEnergy    21094017360                       # Energy for active power-down per rank (pJ)
system.mem_ctrls1_0.prePowerDownEnergy    12976012320                       # Energy for precharge power-down per rank (pJ)
system.mem_ctrls1_0.selfRefreshEnergy    1311770743680                       # Energy for self refresh per rank (pJ)
system.mem_ctrls1_0.totalEnergy          1358746975800                       # Total energy per rank (pJ)
system.mem_ctrls1_0.averagePower           245.036260                       # Core power per rank (mW)
system.mem_ctrls1_0.totalIdleTime        322246035000                       # Total Idle time Per DRAM Rank
system.mem_ctrls1_0.memoryStateTime::IDLE    593823750                       # Time in different power states
system.mem_ctrls1_0.memoryStateTime::REF   1937906000                       # Time in different power states
system.mem_ctrls1_0.memoryStateTime::SREF 283012090750                       # Time in different power states
system.mem_ctrls1_0.memoryStateTime::PRE_PDN  17379044750                       # Time in different power states
system.mem_ctrls1_0.memoryStateTime::ACT   1678700750                       # Time in different power states
system.mem_ctrls1_0.memoryStateTime::ACT_PDN  21887825000                       # Time in different power states
system.mem_ctrls1_1.actEnergy                86151240                       # Energy for activate commands per rank (pJ)
system.mem_ctrls1_1.preEnergy                45790470                       # Energy for precharge commands per rank (pJ)
system.mem_ctrls1_1.readEnergy              228430020                       # Energy for read commands per rank (pJ)
system.mem_ctrls1_1.writeEnergy             108967500                       # Energy for write commands per rank (pJ)
system.mem_ctrls1_1.refreshEnergy        8465436720.000002                       # Energy for refresh commands per rank (pJ)
system.mem_ctrls1_1.actBackEnergy          2788427460                       # Energy for active background per rank (pJ)
system.mem_ctrls1_1.preBackEnergy           494881440                       # Energy for precharge background per rank (pJ)
system.mem_ctrls1_1.actPowerDownEnergy    20399773890                       # Energy for active power-down per rank (pJ)
system.mem_ctrls1_1.prePowerDownEnergy    11776967040                       # Energy for precharge power-down per rank (pJ)
system.mem_ctrls1_1.selfRefreshEnergy    1312807637010                       # Energy for self refresh per rank (pJ)
system.mem_ctrls1_1.totalEnergy          1357204676370                       # Total energy per rank (pJ)
system.mem_ctrls1_1.averagePower           244.758122                       # Core power per rank (mW)
system.mem_ctrls1_1.totalIdleTime        321995104500                       # Total Idle time Per DRAM Rank
system.mem_ctrls1_1.memoryStateTime::IDLE    545858500                       # Time in different power states
system.mem_ctrls1_1.memoryStateTime::REF   1920222000                       # Time in different power states
system.mem_ctrls1_1.memoryStateTime::SREF 283031686000                       # Time in different power states
system.mem_ctrls1_1.memoryStateTime::PRE_PDN  17077428750                       # Time in different power states
system.mem_ctrls1_1.memoryStateTime::ACT   1776492750                       # Time in different power states
system.mem_ctrls1_1.memoryStateTime::ACT_PDN  21911129000                       # Time in different power states
system.mem_ctrls2.pwrStateResidencyTicks::UNDEFINED 5545085358000                       # Cumulative time (in ticks) in various power states
system.mem_ctrls2.bytes_read::ruby.dir_cntrl2      1951808                       # Number of bytes read from this memory
system.mem_ctrls2.bytes_read::total           1951808                       # Number of bytes read from this memory
system.mem_ctrls2.bytes_written::ruby.dir_cntrl2      2110720                       # Number of bytes written to this memory
system.mem_ctrls2.bytes_written::total        2110720                       # Number of bytes written to this memory
system.mem_ctrls2.num_reads::ruby.dir_cntrl2        30497                       # Number of read requests responded to by this memory
system.mem_ctrls2.num_reads::total              30497                       # Number of read requests responded to by this memory
system.mem_ctrls2.num_writes::ruby.dir_cntrl2        32980                       # Number of write requests responded to by this memory
system.mem_ctrls2.num_writes::total             32980                       # Number of write requests responded to by this memory
system.mem_ctrls2.bw_read::ruby.dir_cntrl2      6043841                       # Total read bandwidth from this memory (bytes/s)
system.mem_ctrls2.bw_read::total              6043841                       # Total read bandwidth from this memory (bytes/s)
system.mem_ctrls2.bw_write::ruby.dir_cntrl2      6535917                       # Write bandwidth from this memory (bytes/s)
system.mem_ctrls2.bw_write::total             6535917                       # Write bandwidth from this memory (bytes/s)
system.mem_ctrls2.bw_total::ruby.dir_cntrl2     12579758                       # Total bandwidth to/from this memory (bytes/s)
system.mem_ctrls2.bw_total::total            12579758                       # Total bandwidth to/from this memory (bytes/s)
system.mem_ctrls2.readReqs                      30497                       # Number of read requests accepted
system.mem_ctrls2.writeReqs                     32980                       # Number of write requests accepted
system.mem_ctrls2.readBursts                    30497                       # Number of DRAM read bursts, including those serviced by the write queue
system.mem_ctrls2.writeBursts                   32980                       # Number of DRAM write bursts, including those merged in the write queue
system.mem_ctrls2.bytesReadDRAM               1938880                       # Total number of bytes read from DRAM
system.mem_ctrls2.bytesReadWrQ                  12928                       # Total number of bytes read from write queue
system.mem_ctrls2.bytesWritten                2110592                       # Total number of bytes written to DRAM
system.mem_ctrls2.bytesReadSys                1951808                       # Total read bytes from the system interface side
system.mem_ctrls2.bytesWrittenSys             2110720                       # Total written bytes from the system interface side
system.mem_ctrls2.servicedByWrQ                   202                       # Number of DRAM read bursts serviced by the write queue
system.mem_ctrls2.mergedWrBursts                    0                       # Number of DRAM write bursts merged with an existing one
system.mem_ctrls2.neitherReadNorWriteReqs            0                       # Number of requests that are neither read nor write
system.mem_ctrls2.perBankRdBursts::0             1894                       # Per bank write bursts
system.mem_ctrls2.perBankRdBursts::1             1919                       # Per bank write bursts
system.mem_ctrls2.perBankRdBursts::2             1891                       # Per bank write bursts
system.mem_ctrls2.perBankRdBursts::3             1965                       # Per bank write bursts
system.mem_ctrls2.perBankRdBursts::4             1917                       # Per bank write bursts
system.mem_ctrls2.perBankRdBursts::5             1870                       # Per bank write bursts
system.mem_ctrls2.perBankRdBursts::6             1851                       # Per bank write bursts
system.mem_ctrls2.perBankRdBursts::7             1843                       # Per bank write bursts
system.mem_ctrls2.perBankRdBursts::8             1835                       # Per bank write bursts
system.mem_ctrls2.perBankRdBursts::9             1915                       # Per bank write bursts
system.mem_ctrls2.perBankRdBursts::10            1935                       # Per bank write bursts
system.mem_ctrls2.perBankRdBursts::11            1832                       # Per bank write bursts
system.mem_ctrls2.perBankRdBursts::12            1881                       # Per bank write bursts
system.mem_ctrls2.perBankRdBursts::13            1887                       # Per bank write bursts
system.mem_ctrls2.perBankRdBursts::14            1948                       # Per bank write bursts
system.mem_ctrls2.perBankRdBursts::15            1912                       # Per bank write bursts
system.mem_ctrls2.perBankWrBursts::0             2047                       # Per bank write bursts
system.mem_ctrls2.perBankWrBursts::1             1915                       # Per bank write bursts
system.mem_ctrls2.perBankWrBursts::2             2131                       # Per bank write bursts
system.mem_ctrls2.perBankWrBursts::3             1996                       # Per bank write bursts
system.mem_ctrls2.perBankWrBursts::4             1855                       # Per bank write bursts
system.mem_ctrls2.perBankWrBursts::5             1902                       # Per bank write bursts
system.mem_ctrls2.perBankWrBursts::6             1824                       # Per bank write bursts
system.mem_ctrls2.perBankWrBursts::7             2005                       # Per bank write bursts
system.mem_ctrls2.perBankWrBursts::8             2341                       # Per bank write bursts
system.mem_ctrls2.perBankWrBursts::9             2249                       # Per bank write bursts
system.mem_ctrls2.perBankWrBursts::10            2232                       # Per bank write bursts
system.mem_ctrls2.perBankWrBursts::11            2217                       # Per bank write bursts
system.mem_ctrls2.perBankWrBursts::12            2067                       # Per bank write bursts
system.mem_ctrls2.perBankWrBursts::13            2121                       # Per bank write bursts
system.mem_ctrls2.perBankWrBursts::14            2084                       # Per bank write bursts
system.mem_ctrls2.perBankWrBursts::15            1992                       # Per bank write bursts
system.mem_ctrls2.numRdRetry                        0                       # Number of times read queue was full causing retry
system.mem_ctrls2.numWrRetry                       76                       # Number of times write queue was full causing retry
system.mem_ctrls2.totGap                 324885406500                       # Total gap between requests
system.mem_ctrls2.readPktSize::0                    0                       # Read request sizes (log2)
system.mem_ctrls2.readPktSize::1                    0                       # Read request sizes (log2)
system.mem_ctrls2.readPktSize::2                    0                       # Read request sizes (log2)
system.mem_ctrls2.readPktSize::3                    0                       # Read request sizes (log2)
system.mem_ctrls2.readPktSize::4                    0                       # Read request sizes (log2)
system.mem_ctrls2.readPktSize::5                    0                       # Read request sizes (log2)
system.mem_ctrls2.readPktSize::6                30497                       # Read request sizes (log2)
system.mem_ctrls2.writePktSize::0                   0                       # Write request sizes (log2)
system.mem_ctrls2.writePktSize::1                   0                       # Write request sizes (log2)
system.mem_ctrls2.writePktSize::2                   0                       # Write request sizes (log2)
[...]
system.ruby.L1Cache_Controller.IM.Data_all_Acks::total       578460                      
system.ruby.L1Cache_Controller.SM.Fwd_GETX |      109847    100.00%    100.00% |           0      0.00%    100.00% |           0      0.00%    100.00% |           0      0.00%    100.00% |           0      0.00%    100.00% |           0      0.00%    100.00% |           0      0.00%    100.00% |           0      0.00%    100.00%
system.ruby.L1Cache_Controller.SM.Fwd_GETX::total       109847                      
system.ruby.L1Cache_Controller.M_I.WB_Ack |      648943    100.00%    100.00% |           0      0.00%    100.00% |           0      0.00%    100.00% |           0      0.00%    100.00% |           0      0.00%    100.00% |           0      0.00%    100.00% |           0      0.00%    100.00% |           0      0.00%    100.00%
system.ruby.L1Cache_Controller.M_I.WB_Ack::total       648943                      
system.ruby.L1Cache_Controller.PF_IS.Load |         451    100.00%    100.00% |           0      0.00%    100.00% |           0      0.00%    100.00% |           0      0.00%    100.00% |           0      0.00%    100.00% |           0      0.00%    100.00% |           0      0.00%    100.00% |           0      0.00%    100.00%
system.ruby.L1Cache_Controller.PF_IS.Load::total          451                      
system.ruby.L1Cache_Controller.PF_IS.Ifetch |          76    100.00%    100.00% |           0      0.00%    100.00% |           0      0.00%    100.00% |           0      0.00%    100.00% |           0      0.00%    100.00% |           0      0.00%    100.00% |           0      0.00%    100.00% |           0      0.00%    100.00%
system.ruby.L1Cache_Controller.PF_IS.Ifetch::total           76                      
system.ruby.L1Cache_Controller.PF_IS.Data_Exclusive |       34900    100.00%    100.00% |           0      0.00%    100.00% |           0      0.00%    100.00% |           0      0.00%    100.00% |           0      0.00%    100.00% |           0      0.00%    100.00% |           0      0.00%    100.00% |           0      0.00%    100.00%
system.ruby.L1Cache_Controller.PF_IS.Data_Exclusive::total        34900                      
system.ruby.L1Cache_Controller.PF_IS.Data_all_Acks |        7396    100.00%    100.00% |           0      0.00%    100.00% |           0      0.00%    100.00% |           0      0.00%    100.00% |           0      0.00%    100.00% |           0      0.00%    100.00% |           0      0.00%    100.00% |           0      0.00%    100.00%
system.ruby.L1Cache_Controller.PF_IS.Data_all_Acks::total         7396                      
system.ruby.L1Cache_Controller.PF_IS.PF_Load |           2    100.00%    100.00% |           0      0.00%    100.00% |           0      0.00%    100.00% |           0      0.00%    100.00% |           0      0.00%    100.00% |           0      0.00%    100.00% |           0      0.00%    100.00% |           0      0.00%    100.00%
system.ruby.L1Cache_Controller.PF_IS.PF_Load::total            2                      
system.ruby.L1Cache_Controller.PF_IM.Store |        3703    100.00%    100.00% |           0      0.00%    100.00% |           0      0.00%    100.00% |           0      0.00%    100.00% |           0      0.00%    100.00% |           0      0.00%    100.00% |           0      0.00%    100.00% |           0      0.00%    100.00%
system.ruby.L1Cache_Controller.PF_IM.Store::total         3703                      
system.ruby.L1Cache_Controller.PF_IM.Data_all_Acks |       70985    100.00%    100.00% |           0      0.00%    100.00% |           0      0.00%    100.00% |           0      0.00%    100.00% |           0      0.00%    100.00% |           0      0.00%    100.00% |           0      0.00%    100.00% |           0      0.00%    100.00%
system.ruby.L1Cache_Controller.PF_IM.Data_all_Acks::total        70985                      
system.ruby.L2Cache_Controller.L1_GET_INSTR |       64352     12.98%     12.98% |       63266     12.76%     25.75% |       60272     12.16%     37.90% |       65700     13.25%     51.16% |       57288     11.56%     62.72% |       63820     12.87%     75.59% |       65490     13.21%     88.80% |       55509     11.20%    100.00%
system.ruby.L2Cache_Controller.L1_GET_INSTR::total       495697                      
system.ruby.L2Cache_Controller.L1_GETS   |       81442     16.24%     16.24% |       60438     12.05%     28.29% |       61525     12.27%     40.56% |       61846     12.33%     52.90% |       59841     11.93%     64.83% |       57122     11.39%     76.22% |       57630     11.49%     87.71% |       61620     12.29%    100.00%
system.ruby.L2Cache_Controller.L1_GETS::total       501464                      
system.ruby.L2Cache_Controller.L1_GETX   |       88717     13.66%     13.66% |       78584     12.10%     25.76% |       81472     12.54%     38.31% |       80584     12.41%     50.71% |       79110     12.18%     62.89% |       81528     12.55%     75.45% |       79325     12.21%     87.66% |       80125     12.34%    100.00%
system.ruby.L2Cache_Controller.L1_GETX::total       649445                      
system.ruby.L2Cache_Controller.L1_PUTX   |      215321     14.01%     14.01% |      190053     12.37%     26.38% |      190096     12.37%     38.75% |      194829     12.68%     51.43% |      183186     11.92%     63.35% |      189910     12.36%     75.71% |      190003     12.37%     88.08% |      183174     11.92%    100.00%
system.ruby.L2Cache_Controller.L1_PUTX::total      1536572                      
system.ruby.L2Cache_Controller.L2_Replacement |       26482     12.48%     12.48% |       26678     12.58%     25.06% |       26444     12.47%     37.53% |       26724     12.60%     50.12% |       26440     12.46%     62.59% |       26605     12.54%     75.13% |       26300     12.40%     87.53% |       26457     12.47%    100.00%
system.ruby.L2Cache_Controller.L2_Replacement::total       212130                      
system.ruby.L2Cache_Controller.L2_Replacement_clean |        2528     13.10%     13.10% |        2442     12.65%     25.75% |        2441     12.65%     38.39% |        2326     12.05%     50.44% |        2411     12.49%     62.93% |        2359     12.22%     75.15% |        2412     12.50%     87.65% |        2384     12.35%    100.00%
system.ruby.L2Cache_Controller.L2_Replacement_clean::total        19303                      
system.ruby.L2Cache_Controller.Mem_Data  |       30713     12.58%     12.58% |       30522     12.50%     25.08% |       30497     12.49%     37.58% |       30482     12.49%     50.06% |       30457     12.48%     62.54% |       30459     12.48%     75.02% |       30506     12.50%     87.52% |       30475     12.48%    100.00%
system.ruby.L2Cache_Controller.Mem_Data::total       244111                      
system.ruby.L2Cache_Controller.Mem_Ack   |       29344     12.60%     12.60% |       29274     12.57%     25.18% |       29032     12.47%     37.65% |       29198     12.54%     50.19% |       28999     12.46%     62.65% |       29112     12.50%     75.15% |       28861     12.40%     87.55% |       28991     12.45%    100.00%
system.ruby.L2Cache_Controller.Mem_Ack::total       232811                      
system.ruby.L2Cache_Controller.WB_Data   |         180    100.00%    100.00% |           0      0.00%    100.00% |           0      0.00%    100.00% |           0      0.00%    100.00% |           0      0.00%    100.00% |           0      0.00%    100.00% |           0      0.00%    100.00% |           0      0.00%    100.00%
system.ruby.L2Cache_Controller.WB_Data::total          180                      
system.ruby.L2Cache_Controller.Ack_all   |         860     12.86%     12.86% |         883     13.21%     26.07% |         827     12.37%     38.44% |         787     11.77%     50.22% |         820     12.27%     62.48% |         821     12.28%     74.76% |         844     12.63%     87.39% |         843     12.61%    100.00%
system.ruby.L2Cache_Controller.Ack_all::total         6685                      
system.ruby.L2Cache_Controller.Unblock   |      170159     14.79%     14.79% |      139020     12.08%     26.87% |      142921     12.42%     39.29% |      142403     12.37%     51.66% |      138950     12.07%     63.73% |      138647     12.05%     75.78% |      136949     11.90%     87.68% |      141744     12.32%    100.00%
system.ruby.L2Cache_Controller.Unblock::total      1150793                      
system.ruby.L2Cache_Controller.MEM_Inv   |         668     24.24%     24.24% |         308     11.18%     35.41% |         294     10.67%     46.08% |         296     10.74%     56.82% |         296     10.74%     67.56% |         296     10.74%     78.30% |         298     10.81%     89.11% |         300     10.89%    100.00%
system.ruby.L2Cache_Controller.MEM_Inv::total         2756                      
system.ruby.L2Cache_Controller.NP.L1_GET_INSTR |         384     12.36%     12.36% |         396     12.74%     25.10% |         396     12.74%     37.84% |         379     12.19%     50.03% |         369     11.87%     61.90% |         383     12.32%     74.23% |         399     12.84%     87.07% |         402     12.93%    100.00%
system.ruby.L2Cache_Controller.NP.L1_GET_INSTR::total         3108                      
system.ruby.L2Cache_Controller.NP.L1_GETS |        3636     12.91%     12.91% |        3499     12.43%     25.34% |        3498     12.42%     37.76% |        3553     12.62%     50.38% |        3480     12.36%     62.73% |        3528     12.53%     75.26% |        3536     12.56%     87.82% |        3430     12.18%    100.00%
system.ruby.L2Cache_Controller.NP.L1_GETS::total        28160                      
system.ruby.L2Cache_Controller.NP.L1_GETX |       26693     12.54%     12.54% |       26627     12.51%     25.05% |       26603     12.50%     37.55% |       26550     12.47%     50.02% |       26608     12.50%     62.53% |       26548     12.47%     75.00% |       26571     12.48%     87.48% |       26643     12.52%    100.00%
system.ruby.L2Cache_Controller.NP.L1_GETX::total       212843                      
system.ruby.L2Cache_Controller.SS.L1_GET_INSTR |       63967     12.99%     12.99% |       62869     12.76%     25.75% |       59873     12.16%     37.90% |       65321     13.26%     51.17% |       56918     11.56%     62.72% |       63435     12.88%     75.60% |       65089     13.21%     88.81% |       55107     11.19%    100.00%
system.ruby.L2Cache_Controller.SS.L1_GET_INSTR::total       492579                      
system.ruby.L2Cache_Controller.SS.L1_GETS |           0      0.00%      0.00% |           2      1.72%      1.72% |          76     65.52%     67.24% |          27     23.28%     90.52% |           1      0.86%     91.38% |           3      2.59%     93.97% |           6      5.17%     99.14% |           1      0.86%    100.00%
system.ruby.L2Cache_Controller.SS.L1_GETS::total          116                      
system.ruby.L2Cache_Controller.SS.L1_PUTX |       64352     12.98%     12.98% |       63268     12.76%     25.74% |       60348     12.17%     37.91% |       65728     13.26%     51.17% |       57289     11.55%     62.72% |       63823     12.87%     75.59% |       65496     13.21%     88.80% |       55510     11.20%    100.00%
system.ruby.L2Cache_Controller.SS.L1_PUTX::total       495814                      
system.ruby.L2Cache_Controller.SS.L2_Replacement_clean |         859     12.86%     12.86% |         882     13.20%     26.06% |         827     12.38%     38.44% |         786     11.77%     50.21% |         819     12.26%     62.47% |         821     12.29%     74.76% |         843     12.62%     87.38% |         843     12.62%    100.00%
system.ruby.L2Cache_Controller.SS.L2_Replacement_clean::total         6680                      
system.ruby.L2Cache_Controller.M.L1_GET_INSTR |           1     10.00%     10.00% |           1     10.00%     20.00% |           3     30.00%     50.00% |           0      0.00%     50.00% |           1     10.00%     60.00% |           2     20.00%     80.00% |           2     20.00%    100.00% |           0      0.00%    100.00%
system.ruby.L2Cache_Controller.M.L1_GET_INSTR::total           10                      
system.ruby.L2Cache_Controller.M.L1_GETS |       77806     16.44%     16.44% |       56937     12.03%     28.48% |       57951     12.25%     40.72% |       58266     12.31%     53.04% |       56360     11.91%     64.95% |       53591     11.33%     76.27% |       54088     11.43%     87.70% |       58189     12.30%    100.00%
system.ruby.L2Cache_Controller.M.L1_GETS::total       473188                      
system.ruby.L2Cache_Controller.M.L1_GETX |       43015     13.16%     13.16% |       39724     12.16%     25.32% |       41697     12.76%     38.08% |       40734     12.47%     50.55% |       39450     12.07%     62.62% |       42420     12.98%     75.60% |       40313     12.34%     87.94% |       39402     12.06%    100.00%
system.ruby.L2Cache_Controller.M.L1_GETX::total       326755                      
system.ruby.L2Cache_Controller.M.L2_Replacement |       26482     12.48%     12.48% |       26678     12.58%     25.06% |       26444     12.47%     37.53% |       26724     12.60%     50.12% |       26440     12.46%     62.59% |       26605     12.54%     75.13% |       26300     12.40%     87.53% |       26457     12.47%    100.00%
system.ruby.L2Cache_Controller.M.L2_Replacement::total       212130                      
system.ruby.L2Cache_Controller.M.L2_Replacement_clean |        1669     13.22%     13.22% |        1560     12.36%     25.58% |        1614     12.79%     38.37% |        1540     12.20%     50.57% |        1592     12.61%     63.18% |        1538     12.18%     75.36% |        1569     12.43%     87.79% |        1541     12.21%    100.00%
system.ruby.L2Cache_Controller.M.L2_Replacement_clean::total        12623                      
system.ruby.L2Cache_Controller.M.MEM_Inv |         153     12.82%     12.82% |         153     12.82%     25.65% |         147     12.32%     37.97% |         147     12.32%     50.29% |         147     12.32%     62.62% |         148     12.41%     75.02% |         148     12.41%     87.43% |         150     12.57%    100.00%
system.ruby.L2Cache_Controller.M.MEM_Inv::total         1193                      
system.ruby.L2Cache_Controller.MT.L1_GETX |       19009     17.30%     17.30% |       12233     11.14%     28.44% |       13172     11.99%     40.43% |       13300     12.11%     52.54% |       13052     11.88%     64.42% |       12560     11.43%     75.86% |       12441     11.33%     87.18% |       14080     12.82%    100.00%
system.ruby.L2Cache_Controller.MT.L1_GETX::total       109847                      
system.ruby.L2Cache_Controller.MT.L1_PUTX |      150969     14.51%     14.51% |      126785     12.18%     26.69% |      129748     12.47%     39.15% |      129101     12.40%     51.56% |      125897     12.10%     63.66% |      126087     12.11%     75.77% |      124507     11.96%     87.73% |      127664     12.27%    100.00%
system.ruby.L2Cache_Controller.MT.L1_PUTX::total      1040758                      
system.ruby.L2Cache_Controller.MT.MEM_Inv |         181     97.84%     97.84% |           1      0.54%     98.38% |           0      0.00%     98.38% |           1      0.54%     98.92% |           1      0.54%     99.46% |           0      0.00%     99.46% |           1      0.54%    100.00% |           0      0.00%    100.00%
system.ruby.L2Cache_Controller.MT.MEM_Inv::total          185                      
system.ruby.L2Cache_Controller.M_I.Mem_Ack |       29344     12.60%     12.60% |       29274     12.57%     25.18% |       29032     12.47%     37.65% |       29198     12.54%     50.19% |       28999     12.46%     62.65% |       29112     12.50%     75.15% |       28861     12.40%     87.55% |       28991     12.45%    100.00%
system.ruby.L2Cache_Controller.M_I.Mem_Ack::total       232811                      
system.ruby.L2Cache_Controller.M_I.MEM_Inv |         153     12.82%     12.82% |         153     12.82%     25.65% |         147     12.32%     37.97% |         147     12.32%     50.29% |         147     12.32%     62.62% |         148     12.41%     75.02% |         148     12.41%     87.43% |         150     12.57%    100.00%
system.ruby.L2Cache_Controller.M_I.MEM_Inv::total         1193                      
system.ruby.L2Cache_Controller.MT_I.WB_Data |         180    100.00%    100.00% |           0      0.00%    100.00% |           0      0.00%    100.00% |           0      0.00%    100.00% |           0      0.00%    100.00% |           0      0.00%    100.00% |           0      0.00%    100.00% |           0      0.00%    100.00%
system.ruby.L2Cache_Controller.MT_I.WB_Data::total          180                      
system.ruby.L2Cache_Controller.MT_I.Ack_all |           1     20.00%     20.00% |           1     20.00%     40.00% |           0      0.00%     40.00% |           1     20.00%     60.00% |           1     20.00%     80.00% |           0      0.00%     80.00% |           1     20.00%    100.00% |           0      0.00%    100.00%
system.ruby.L2Cache_Controller.MT_I.Ack_all::total            5                      
system.ruby.L2Cache_Controller.MT_I.MEM_Inv |         181     97.84%     97.84% |           1      0.54%     98.38% |           0      0.00%     98.38% |           1      0.54%     98.92% |           1      0.54%     99.46% |           0      0.00%     99.46% |           1      0.54%    100.00% |           0      0.00%    100.00%
system.ruby.L2Cache_Controller.MT_I.MEM_Inv::total          185                      
system.ruby.L2Cache_Controller.I_I.Ack_all |         859     12.86%     12.86% |         882     13.20%     26.06% |         827     12.38%     38.44% |         786     11.77%     50.21% |         819     12.26%     62.47% |         821     12.29%     74.76% |         843     12.62%     87.38% |         843     12.62%    100.00%
system.ruby.L2Cache_Controller.I_I.Ack_all::total         6680                      
system.ruby.L2Cache_Controller.ISS.Mem_Data |        3636     12.91%     12.91% |        3499     12.43%     25.34% |        3498     12.42%     37.76% |        3553     12.62%     50.38% |        3480     12.36%     62.73% |        3528     12.53%     75.26% |        3536     12.56%     87.82% |        3430     12.18%    100.00%
system.ruby.L2Cache_Controller.ISS.Mem_Data::total        28160                      
system.ruby.L2Cache_Controller.IS.Mem_Data |         384     12.36%     12.36% |         396     12.74%     25.10% |         396     12.74%     37.84% |         379     12.19%     50.03% |         369     11.87%     61.90% |         383     12.32%     74.23% |         399     12.84%     87.07% |         402     12.93%    100.00%
system.ruby.L2Cache_Controller.IS.Mem_Data::total         3108                      
system.ruby.L2Cache_Controller.IM.Mem_Data |       26693     12.54%     12.54% |       26627     12.51%     25.05% |       26603     12.50%     37.55% |       26550     12.47%     50.02% |       26608     12.50%     62.53% |       26548     12.47%     75.00% |       26571     12.48%     87.48% |       26643     12.52%    100.00%
system.ruby.L2Cache_Controller.IM.Mem_Data::total       212843                      
system.ruby.L2Cache_Controller.MT_MB.Unblock |      170159     14.79%     14.79% |      139020     12.08%     26.87% |      142921     12.42%     39.29% |      142403     12.37%     51.66% |      138950     12.07%     63.73% |      138647     12.05%     75.78% |      136949     11.90%     87.68% |      141744     12.32%    100.00%
system.ruby.L2Cache_Controller.MT_MB.Unblock::total      1150793                      

---------- End Simulation Statistics   ----------
