
---------- Begin Simulation Statistics ----------
sim_seconds                                  0.327325                       # Number of seconds simulated
sim_ticks                                327325224500                       # Number of ticks simulated
final_tick                               5555721306500                       # Number of ticks from beginning of simulation (restored from checkpoints and never reset)
sim_freq                                 1000000000000                       # Frequency of simulated ticks
host_inst_rate                                 834009                       # Simulator instruction rate (inst/s)
host_op_rate                                  1526160                       # Simulator op (including micro ops) rate (op/s)
host_tick_rate                              909974176                       # Simulator tick rate (ticks/s)
host_mem_usage                                5155136                       # Number of bytes of host memory used
host_seconds                                   359.71                       # Real time elapsed on the host
sim_insts                                   300000000                       # Number of instructions simulated
sim_ops                                     548972410                       # Number of ops (including micro ops) simulated
system.voltage_domain.voltage                       1                       # Voltage in Volts
system.clk_domain.clock                          1000                       # Clock period in ticks
system.mem_ctrls0.pwrStateResidencyTicks::UNDEFINED 5555721306500                       # Cumulative time (in ticks) in various power states
system.mem_ctrls0.bytes_read::ruby.dir_cntrl0      1278528                       # Number of bytes read from this memory
system.mem_ctrls0.bytes_read::total           1278528                       # Number of bytes read from this memory
system.mem_ctrls0.bytes_written::ruby.dir_cntrl0      1704576                       # Number of bytes written to this memory
system.mem_ctrls0.bytes_written::total        1704576                       # Number of bytes written to this memory
system.mem_ctrls0.num_reads::ruby.dir_cntrl0        19977                       # Number of read requests responded to by this memory
system.mem_ctrls0.num_reads::total              19977                       # Number of read requests responded to by this memory
system.mem_ctrls0.num_writes::ruby.dir_cntrl0        26634                       # Number of write requests responded to by this memory
system.mem_ctrls0.num_writes::total             26634                       # Number of write requests responded to by this memory
system.mem_ctrls0.bw_read::ruby.dir_cntrl0      3905987                       # Total read bandwidth from this memory (bytes/s)
system.mem_ctrls0.bw_read::total              3905987                       # Total read bandwidth from this memory (bytes/s)
system.mem_ctrls0.bw_write::ruby.dir_cntrl0      5207591                       # Write bandwidth from this memory (bytes/s)
system.mem_ctrls0.bw_write::total             5207591                       # Write bandwidth from this memory (bytes/s)
system.mem_ctrls0.bw_total::ruby.dir_cntrl0      9113578                       # Total bandwidth to/from this memory (bytes/s)
system.mem_ctrls0.bw_total::total             9113578                       # Total bandwidth to/from this memory (bytes/s)
system.mem_ctrls0.readReqs                      19977                       # Number of read requests accepted
system.mem_ctrls0.writeReqs                     26634                       # Number of write requests accepted
system.mem_ctrls0.readBursts                    19977                       # Number of DRAM read bursts, including those serviced by the write queue
system.mem_ctrls0.writeBursts                   26634                       # Number of DRAM write bursts, including those merged in the write queue
system.mem_ctrls0.bytesReadDRAM               1251840                       # Total number of bytes read from DRAM
system.mem_ctrls0.bytesReadWrQ                  26688                       # Total number of bytes read from write queue
system.mem_ctrls0.bytesWritten                1696512                       # Total number of bytes written to DRAM
system.mem_ctrls0.bytesReadSys                1278528                       # Total read bytes from the system interface side
system.mem_ctrls0.bytesWrittenSys             1704576                       # Total written bytes from the system interface side
system.mem_ctrls0.servicedByWrQ                   417                       # Number of DRAM read bursts serviced by the write queue
system.mem_ctrls0.mergedWrBursts                  133                       # Number of DRAM write bursts merged with an existing one
system.mem_ctrls0.neitherReadNorWriteReqs            0                       # Number of requests that are neither read nor write
system.mem_ctrls0.perBankRdBursts::0             1293                       # Per bank write bursts
system.mem_ctrls0.perBankRdBursts::1             1267                       # Per bank write bursts
system.mem_ctrls0.perBankRdBursts::2             1341                       # Per bank write bursts
system.mem_ctrls0.perBankRdBursts::3             1321                       # Per bank write bursts
system.mem_ctrls0.perBankRdBursts::4             1213                       # Per bank write bursts
system.mem_ctrls0.perBankRdBursts::5             1141                       # Per bank write bursts
system.mem_ctrls0.perBankRdBursts::6             1102                       # Per bank write bursts
system.mem_ctrls0.perBankRdBursts::7             1099                       # Per bank write bursts
system.mem_ctrls0.perBankRdBursts::8             1351                       # Per bank write bursts
system.mem_ctrls0.perBankRdBursts::9             1127                       # Per bank write bursts
system.mem_ctrls0.perBankRdBursts::10            1160                       # Per bank write bursts
system.mem_ctrls0.perBankRdBursts::11            1190                       # Per bank write bursts
system.mem_ctrls0.perBankRdBursts::12            1210                       # Per bank write bursts
system.mem_ctrls0.perBankRdBursts::13            1232                       # Per bank write bursts
system.mem_ctrls0.perBankRdBursts::14            1223                       # Per bank write bursts
system.mem_ctrls0.perBankRdBursts::15            1290                       # Per bank write bursts
system.mem_ctrls0.perBankWrBursts::0             1823                       # Per bank write bursts
system.mem_ctrls0.perBankWrBursts::1             1648                       # Per bank write bursts
system.mem_ctrls0.perBankWrBursts::2             1581                       # Per bank write bursts
system.mem_ctrls0.perBankWrBursts::3             1596                       # Per bank write bursts
system.mem_ctrls0.perBankWrBursts::4             1556                       # Per bank write bursts
system.mem_ctrls0.perBankWrBursts::5             1593                       # Per bank write bursts
system.mem_ctrls0.perBankWrBursts::6             1603                       # Per bank write bursts
system.mem_ctrls0.perBankWrBursts::7             1694                       # Per bank write bursts
system.mem_ctrls0.perBankWrBursts::8             1883                       # Per bank write bursts
system.mem_ctrls0.perBankWrBursts::9             1736                       # Per bank write bursts
system.mem_ctrls0.perBankWrBursts::10            1553                       # Per bank write bursts
system.mem_ctrls0.perBankWrBursts::11            1642                       # Per bank write bursts
system.mem_ctrls0.perBankWrBursts::12            1782                       # Per bank write bursts
system.mem_ctrls0.perBankWrBursts::13            1841                       # Per bank write bursts
system.mem_ctrls0.perBankWrBursts::14            1461                       # Per bank write bursts
system.mem_ctrls0.perBankWrBursts::15            1516                       # Per bank write bursts
system.mem_ctrls0.numRdRetry                        0                       # Number of times read queue was full causing retry
system.mem_ctrls0.numWrRetry                       39                       # Number of times write queue was full causing retry
system.mem_ctrls0.totGap                 281557132000                       # Total gap between requests
system.mem_ctrls0.readPktSize::0                    0                       # Read request sizes (log2)
system.mem_ctrls0.readPktSize::1                    0                       # Read request sizes (log2)
system.mem_ctrls0.readPktSize::2                    0                       # Read request sizes (log2)
system.mem_ctrls0.readPktSize::3                    0                       # Read request sizes (log2)
system.mem_ctrls0.readPktSize::4                    0                       # Read request sizes (log2)
system.mem_ctrls0.readPktSize::5                    0                       # Read request sizes (log2)
system.mem_ctrls0.readPktSize::6                19977                       # Read request sizes (log2)
system.mem_ctrls0.writePktSize::0                   0                       # Write request sizes (log2)
system.mem_ctrls0.writePktSize::1                   0                       # Write request sizes (log2)
system.mem_ctrls0.writePktSize::2                   0                       # Write request sizes (log2)
system.mem_ctrls0.writePktSize::3                   0                       # Write request sizes (log2)
system.mem_ctrls0.writePktSize::4                   0                       # Write request sizes (log2)
system.mem_ctrls0.writePktSize::5                   0                       # Write request sizes (log2)
system.mem_ctrls0.writePktSize::6               26634                       # Write request sizes (log2)
system.mem_ctrls0.rdQLenPdf::0                  19558                       # What read queue length does an incoming req see
system.mem_ctrls0.rdQLenPdf::1                      2                       # What read queue length does an incoming req see
system.mem_ctrls0.rdQLenPdf::2                      0                       # What read queue length does an incoming req see
system.mem_ctrls0.rdQLenPdf::3                      0                       # What read queue length does an incoming req see
system.mem_ctrls0.rdQLenPdf::4                      0                       # What read queue length does an incoming req see
system.mem_ctrls0.rdQLenPdf::5                      0                       # What read queue length does an incoming req see
system.mem_ctrls0.rdQLenPdf::6                      0                       # What read queue length does an incoming req see
system.mem_ctrls0.rdQLenPdf::7                      0                       # What read queue length does an incoming req see
system.mem_ctrls0.rdQLenPdf::8                      0                       # What read queue length does an incoming req see
system.mem_ctrls0.rdQLenPdf::9                      0                       # What read queue length does an incoming req see
system.mem_ctrls0.rdQLenPdf::10                     0                       # What read queue length does an incoming req see
system.mem_ctrls0.rdQLenPdf::11                     0                       # What read queue length does an incoming req see
system.mem_ctrls0.rdQLenPdf::12                     0                       # What read queue length does an incoming req see
system.mem_ctrls0.rdQLenPdf::13                     0                       # What read queue length does an incoming req see
system.mem_ctrls0.rdQLenPdf::14                     0                       # What read queue length does an incoming req see
system.mem_ctrls0.rdQLenPdf::15                     0                       # What read queue length does an incoming req see
system.mem_ctrls0.rdQLenPdf::16                     0                       # What read queue length does an incoming req see
system.mem_ctrls0.rdQLenPdf::17                     0                       # What read queue length does an incoming req see
system.mem_ctrls0.rdQLenPdf::18                     0                       # What read queue length does an incoming req see
system.mem_ctrls0.rdQLenPdf::19                     0                       # What read queue length does an incoming req see
system.mem_ctrls0.rdQLenPdf::20                     0                       # What read queue length does an incoming req see
system.mem_ctrls0.rdQLenPdf::21                     0                       # What read queue length does an incoming req see
system.mem_ctrls0.rdQLenPdf::22                     0                       # What read queue length does an incoming req see
system.mem_ctrls0.rdQLenPdf::23                     0                       # What read queue length does an incoming req see
system.mem_ctrls0.rdQLenPdf::24                     0                       # What read queue length does an incoming req see
system.mem_ctrls0.rdQLenPdf::25                     0                       # What read queue length does an incoming req see
system.mem_ctrls0.rdQLenPdf::26                     0                       # What read queue length does an incoming req see
system.mem_ctrls0.rdQLenPdf::27                     0                       # What read queue length does an incoming req see
system.mem_ctrls0.rdQLenPdf::28                     0                       # What read queue length does an incoming req see
system.mem_ctrls0.rdQLenPdf::29                     0                       # What read queue length does an incoming req see
system.mem_ctrls0.rdQLenPdf::30                     0                       # What read queue length does an incoming req see
system.mem_ctrls0.rdQLenPdf::31                     0                       # What read queue length does an incoming req see
system.mem_ctrls0.wrQLenPdf::0                      0                       # What write queue length does an incoming req see
system.mem_ctrls0.wrQLenPdf::1                      0                       # What write queue length does an incoming req see
system.mem_ctrls0.wrQLenPdf::2                      0                       # What write queue length does an incoming req see
system.mem_ctrls0.wrQLenPdf::3                      0                       # What write queue length does an incoming req see
system.mem_ctrls0.wrQLenPdf::4                      0                       # What write queue length does an incoming req see
system.mem_ctrls0.wrQLenPdf::5                      0                       # What write queue length does an incoming req see
system.mem_ctrls0.wrQLenPdf::6                      0                       # What write queue length does an incoming req see
system.mem_ctrls0.wrQLenPdf::7                      0                       # What write queue length does an incoming req see
system.mem_ctrls0.wrQLenPdf::8                      0                       # What write queue length does an incoming req see
system.mem_ctrls0.wrQLenPdf::9                      0                       # What write queue length does an incoming req see
system.mem_ctrls0.wrQLenPdf::10                     0                       # What write queue length does an incoming req see
system.mem_ctrls0.wrQLenPdf::11                     0                       # What write queue length does an incoming req see
system.mem_ctrls0.wrQLenPdf::12                     0                       # What write queue length does an incoming req see
system.mem_ctrls0.wrQLenPdf::13                     0                       # What write queue length does an incoming req see
system.mem_ctrls0.wrQLenPdf::14                     0                       # What write queue length does an incoming req see
system.mem_ctrls0.wrQLenPdf::15                   243                       # What write queue length does an incoming req see
system.mem_ctrls0.wrQLenPdf::16                   386                       # What write queue length does an incoming req see
system.mem_ctrls0.wrQLenPdf::17                  1444                       # What write queue length does an incoming req see
system.mem_ctrls0.wrQLenPdf::18                  1524                       # What write queue length does an incoming req see
system.mem_ctrls0.wrQLenPdf::19                  1561                       # What write queue length does an incoming req see
system.mem_ctrls0.wrQLenPdf::20                  1543                       # What write queue length does an incoming req see
system.mem_ctrls0.wrQLenPdf::21                  1515                       # What write queue length does an incoming req see
system.mem_ctrls0.wrQLenPdf::22                  1566                       # What write queue length does an incoming req see
system.mem_ctrls0.wrQLenPdf::23                  1545                       # What write queue length does an incoming req see
system.mem_ctrls0.wrQLenPdf::24                  1635                       # What write queue length does an incoming req see
system.mem_ctrls0.wrQLenPdf::25                  1684                       # What write queue length does an incoming req see
system.mem_ctrls0.wrQLenPdf::26                  1545                       # What write queue length does an incoming req see
system.mem_ctrls0.wrQLenPdf::27                  1491                       # What write queue length does an incoming req see
system.mem_ctrls0.wrQLenPdf::28                  1484                       # What write queue length does an incoming req see
system.mem_ctrls0.wrQLenPdf::29                  1446                       # What write queue length does an incoming req see
system.mem_ctrls0.wrQLenPdf::30                  1402                       # What write queue length does an incoming req see
system.mem_ctrls0.wrQLenPdf::31                  1391                       # What write queue length does an incoming req see
system.mem_ctrls0.wrQLenPdf::32                  1368                       # What write queue length does an incoming req see
system.mem_ctrls0.wrQLenPdf::33                    74                       # What write queue length does an incoming req see
system.mem_ctrls0.wrQLenPdf::34                    67                       # What write queue length does an incoming req see
system.mem_ctrls0.wrQLenPdf::35                    63                       # What write queue length does an incoming req see
system.mem_ctrls0.wrQLenPdf::36                    67                       # What write queue length does an incoming req see
system.mem_ctrls0.wrQLenPdf::37                    65                       # What write queue length does an incoming req see
system.mem_ctrls0.wrQLenPdf::38                    68                       # What write queue length does an incoming req see
system.mem_ctrls0.wrQLenPdf::39                    70                       # What write queue length does an incoming req see
system.mem_ctrls0.wrQLenPdf::40                    64                       # What write queue length does an incoming req see
system.mem_ctrls0.wrQLenPdf::41                    60                       # What write queue length does an incoming req see
system.mem_ctrls0.wrQLenPdf::42                    57                       # What write queue length does an incoming req see
system.mem_ctrls0.wrQLenPdf::43                    68                       # What write queue length does an incoming req see
system.mem_ctrls0.wrQLenPdf::44                    57                       # What write queue length does an incoming req see
system.mem_ctrls0.wrQLenPdf::45                    63                       # What write queue length does an incoming req see
system.mem_ctrls0.wrQLenPdf::46                    56                       # What write queue length does an incoming req see
system.mem_ctrls0.wrQLenPdf::47                    59                       # What write queue length does an incoming req see
system.mem_ctrls0.wrQLenPdf::48                    52                       # What write queue length does an incoming req see
system.mem_ctrls0.wrQLenPdf::49                    51                       # What write queue length does an incoming req see
system.mem_ctrls0.wrQLenPdf::50                    54                       # What write queue length does an incoming req see
system.mem_ctrls0.wrQLenPdf::51                    59                       # What write queue length does an incoming req see
system.mem_ctrls0.wrQLenPdf::52                    60                       # What write queue length does an incoming req see
system.mem_ctrls0.wrQLenPdf::53                    58                       # What write queue length does an incoming req see
system.mem_ctrls0.wrQLenPdf::54                    58                       # What write queue length does an incoming req see
system.mem_ctrls0.wrQLenPdf::55                    47                       # What write queue length does an incoming req see
system.mem_ctrls0.wrQLenPdf::56                    49                       # What write queue length does an incoming req see
system.mem_ctrls0.wrQLenPdf::57                    43                       # What write queue length does an incoming req see
system.mem_ctrls0.wrQLenPdf::58                    43                       # What write queue length does an incoming req see
system.mem_ctrls0.wrQLenPdf::59                    41                       # What write queue length does an incoming req see
system.mem_ctrls0.wrQLenPdf::60                    33                       # What write queue length does an incoming req see
system.mem_ctrls0.wrQLenPdf::61                    26                       # What write queue length does an incoming req see
system.mem_ctrls0.wrQLenPdf::62                    32                       # What write queue length does an incoming req see
system.mem_ctrls0.wrQLenPdf::63                    64                       # What write queue length does an incoming req see
system.mem_ctrls0.bytesPerActivate::samples        12405                       # Bytes accessed per row activation
system.mem_ctrls0.bytesPerActivate::mean   237.674486                       # Bytes accessed per row activation
system.mem_ctrls0.bytesPerActivate::gmean   167.214383                       # Bytes accessed per row activation
system.mem_ctrls0.bytesPerActivate::stdev   223.240937                       # Bytes accessed per row activation
system.mem_ctrls0.bytesPerActivate::0-127         3975     32.04%     32.04% # Bytes accessed per row activation
system.mem_ctrls0.bytesPerActivate::128-255         3645     29.38%     61.43% # Bytes accessed per row activation
system.mem_ctrls0.bytesPerActivate::256-383         2231     17.98%     79.41% # Bytes accessed per row activation
system.mem_ctrls0.bytesPerActivate::384-511         1373     11.07%     90.48% # Bytes accessed per row activation
system.mem_ctrls0.bytesPerActivate::512-639          428      3.45%     93.93% # Bytes accessed per row activation
system.mem_ctrls0.bytesPerActivate::640-767          122      0.98%     94.91% # Bytes accessed per row activation
system.mem_ctrls0.bytesPerActivate::768-895           70      0.56%     95.48% # Bytes accessed per row activation
system.mem_ctrls0.bytesPerActivate::896-1023           71      0.57%     96.05% # Bytes accessed per row activation
system.mem_ctrls0.bytesPerActivate::1024-1151          490      3.95%    100.00% # Bytes accessed per row activation
system.mem_ctrls0.bytesPerActivate::total        12405                       # Bytes accessed per row activation
system.mem_ctrls0.rdPerTurnAround::samples         1338                       # Reads before turning the bus around for writes
system.mem_ctrls0.rdPerTurnAround::mean     14.629297                       # Reads before turning the bus around for writes
system.mem_ctrls0.rdPerTurnAround::stdev     8.168208                       # Reads before turning the bus around for writes
system.mem_ctrls0.rdPerTurnAround::0-3            230     17.19%     17.19% # Reads before turning the bus around for writes
system.mem_ctrls0.rdPerTurnAround::4-7             36      2.69%     19.88% # Reads before turning the bus around for writes
system.mem_ctrls0.rdPerTurnAround::8-11            23      1.72%     21.60% # Reads before turning the bus around for writes
system.mem_ctrls0.rdPerTurnAround::12-15           24      1.79%     23.39% # Reads before turning the bus around for writes
system.mem_ctrls0.rdPerTurnAround::16-19          873     65.25%     88.64% # Reads before turning the bus around for writes
system.mem_ctrls0.rdPerTurnAround::20-23           87      6.50%     95.14% # Reads before turning the bus around for writes
system.mem_ctrls0.rdPerTurnAround::24-27           33      2.47%     97.61% # Reads before turning the bus around for writes
system.mem_ctrls0.rdPerTurnAround::28-31           11      0.82%     98.43% # Reads before turning the bus around for writes
system.mem_ctrls0.rdPerTurnAround::32-35            6      0.45%     98.88% # Reads before turning the bus around for writes
system.mem_ctrls0.rdPerTurnAround::36-39            5      0.37%     99.25% # Reads before turning the bus around for writes
system.mem_ctrls0.rdPerTurnAround::40-43            3      0.22%     99.48% # Reads before turning the bus around for writes
system.mem_ctrls0.rdPerTurnAround::44-47            1      0.07%     99.55% # Reads before turning the bus around for writes
system.mem_ctrls0.rdPerTurnAround::60-63            1      0.07%     99.63% # Reads before turning the bus around for writes
system.mem_ctrls0.rdPerTurnAround::68-71            2      0.15%     99.78% # Reads before turning the bus around for writes
system.mem_ctrls0.rdPerTurnAround::72-75            1      0.07%     99.85% # Reads before turning the bus around for writes
system.mem_ctrls0.rdPerTurnAround::80-83            2      0.15%    100.00% # Reads before turning the bus around for writes
system.mem_ctrls0.rdPerTurnAround::total         1338                       # Reads before turning the bus around for writes
system.mem_ctrls0.wrPerTurnAround::samples         1338                       # Writes before turning the bus around for reads
system.mem_ctrls0.wrPerTurnAround::mean     19.811659                       # Writes before turning the bus around for reads
system.mem_ctrls0.wrPerTurnAround::gmean    18.465484                       # Writes before turning the bus around for reads
system.mem_ctrls0.wrPerTurnAround::stdev     9.969908                       # Writes before turning the bus around for reads
system.mem_ctrls0.wrPerTurnAround::16-17         1062     79.37%     79.37% # Writes before turning the bus around for reads
system.mem_ctrls0.wrPerTurnAround::18-19           32      2.39%     81.76% # Writes before turning the bus around for reads
system.mem_ctrls0.wrPerTurnAround::20-21           11      0.82%     82.59% # Writes before turning the bus around for reads
system.mem_ctrls0.wrPerTurnAround::22-23            5      0.37%     82.96% # Writes before turning the bus around for reads
system.mem_ctrls0.wrPerTurnAround::24-25           22      1.64%     84.60% # Writes before turning the bus around for reads
system.mem_ctrls0.wrPerTurnAround::26-27           13      0.97%     85.58% # Writes before turning the bus around for reads
system.mem_ctrls0.wrPerTurnAround::28-29           45      3.36%     88.94% # Writes before turning the bus around for reads
system.mem_ctrls0.wrPerTurnAround::30-31           17      1.27%     90.21% # Writes before turning the bus around for reads
system.mem_ctrls0.wrPerTurnAround::32-33           30      2.24%     92.45% # Writes before turning the bus around for reads
system.mem_ctrls0.wrPerTurnAround::34-35            7      0.52%     92.97% # Writes before turning the bus around for reads
system.mem_ctrls0.wrPerTurnAround::36-37            8      0.60%     93.57% # Writes before turning the bus around for reads
system.mem_ctrls0.wrPerTurnAround::38-39           14      1.05%     94.62% # Writes before turning the bus around for reads
system.mem_ctrls0.wrPerTurnAround::40-41            9      0.67%     95.29% # Writes before turning the bus around for reads
system.mem_ctrls0.wrPerTurnAround::42-43            5      0.37%     95.67% # Writes before turning the bus around for reads
system.mem_ctrls0.wrPerTurnAround::44-45            3      0.22%     95.89% # Writes before turning the bus around for reads
system.mem_ctrls0.wrPerTurnAround::46-47            3      0.22%     96.11% # Writes before turning the bus around for reads
system.mem_ctrls0.wrPerTurnAround::48-49           17      1.27%     97.38% # Writes before turning the bus around for reads
system.mem_ctrls0.wrPerTurnAround::50-51            8      0.60%     97.98% # Writes before turning the bus around for reads
system.mem_ctrls0.wrPerTurnAround::52-53            4      0.30%     98.28% # Writes before turning the bus around for reads
system.mem_ctrls0.wrPerTurnAround::54-55            1      0.07%     98.36% # Writes before turning the bus around for reads
system.mem_ctrls0.wrPerTurnAround::56-57            2      0.15%     98.51% # Writes before turning the bus around for reads
system.mem_ctrls0.wrPerTurnAround::58-59            1      0.07%     98.58% # Writes before turning the bus around for reads
system.mem_ctrls0.wrPerTurnAround::60-61            1      0.07%     98.65% # Writes before turning the bus around for reads
system.mem_ctrls0.wrPerTurnAround::62-63            2      0.15%     98.80% # Writes before turning the bus around for reads
system.mem_ctrls0.wrPerTurnAround::66-67            1      0.07%     98.88% # Writes before turning the bus around for reads
system.mem_ctrls0.wrPerTurnAround::68-69            9      0.67%     99.55% # Writes before turning the bus around for reads
system.mem_ctrls0.wrPerTurnAround::70-71            1      0.07%     99.63% # Writes before turning the bus around for reads
system.mem_ctrls0.wrPerTurnAround::72-73            1      0.07%     99.70% # Writes before turning the bus around for reads
system.mem_ctrls0.wrPerTurnAround::80-81            1      0.07%     99.78% # Writes before turning the bus around for reads
system.mem_ctrls0.wrPerTurnAround::94-95            1      0.07%     99.85% # Writes before turning the bus around for reads
system.mem_ctrls0.wrPerTurnAround::96-97            1      0.07%     99.93% # Writes before turning the bus around for reads
system.mem_ctrls0.wrPerTurnAround::110-111            1      0.07%    100.00% # Writes before turning the bus around for reads
system.mem_ctrls0.wrPerTurnAround::total         1338                       # Writes before turning the bus around for reads
system.mem_ctrls0.totQLat                  1321622250                       # Total ticks spent queuing
system.mem_ctrls0.totMemAccLat             1688372250                       # Total ticks spent from burst creation until serviced by the DRAM
system.mem_ctrls0.totBusLat                  97800000                       # Total ticks spent in databus transfers
system.mem_ctrls0.avgQLat                    67567.60                       # Average queueing delay per DRAM burst
system.mem_ctrls0.avgBusLat                   5000.00                       # Average bus latency per DRAM burst
system.mem_ctrls0.avgMemAccLat               86317.60                       # Average memory access latency per DRAM burst
system.mem_ctrls0.avgRdBW                        3.82                       # Average DRAM read bandwidth in MiByte/s
system.mem_ctrls0.avgWrBW                        5.18                       # Average achieved write bandwidth in MiByte/s
system.mem_ctrls0.avgRdBWSys                     3.91                       # Average system read bandwidth in MiByte/s
system.mem_ctrls0.avgWrBWSys                     5.21                       # Average system write bandwidth in MiByte/s
system.mem_ctrls0.peakBW                     12800.00                       # Theoretical peak bandwidth in MiByte/s
system.mem_ctrls0.busUtil                        0.07                       # Data bus utilization in percentage
system.mem_ctrls0.busUtilRead                    0.03                       # Data bus utilization in percentage for reads
system.mem_ctrls0.busUtilWrite                   0.04                       # Data bus utilization in percentage for writes
system.mem_ctrls0.avgRdQLen                      1.00                       # Average read queue length when enqueuing
system.mem_ctrls0.avgWrQLen                     24.35                       # Average write queue length when enqueuing
system.mem_ctrls0.readRowHits                   13389                       # Number of row buffer hits during reads
system.mem_ctrls0.writeRowHits                  20274                       # Number of row buffer hits during writes
system.mem_ctrls0.readRowHitRate                68.45                       # Row buffer hit rate for reads
system.mem_ctrls0.writeRowHitRate               76.50                       # Row buffer hit rate for writes
system.mem_ctrls0.avgGap                   6040572.65                       # Average gap between requests
system.mem_ctrls0.pageHitRate                   73.08                       # Row buffer hit rate, read and write combined
system.mem_ctrls0_0.actEnergy                84680400                       # Energy for activate commands per rank (pJ)
system.mem_ctrls0_0.preEnergy                45008700                       # Energy for precharge commands per rank (pJ)
system.mem_ctrls0_0.readEnergy              190159620                       # Energy for read commands per rank (pJ)
system.mem_ctrls0_0.writeEnergy              90901080                       # Energy for write commands per rank (pJ)
system.mem_ctrls0_0.refreshEnergy        7773352080.000002                       # Energy for refresh commands per rank (pJ)
system.mem_ctrls0_0.actBackEnergy          2563961460                       # Energy for active background per rank (pJ)
system.mem_ctrls0_0.preBackEnergy           450121440                       # Energy for precharge background per rank (pJ)
system.mem_ctrls0_0.actPowerDownEnergy    19105570080                       # Energy for active power-down per rank (pJ)
system.mem_ctrls0_0.prePowerDownEnergy    11016716640                       # Energy for precharge power-down per rank (pJ)
system.mem_ctrls0_0.selfRefreshEnergy    1316408434725                       # Energy for self refresh per rank (pJ)
system.mem_ctrls0_0.totalEnergy          1357731957315                       # Total energy per rank (pJ)
system.mem_ctrls0_0.averagePower           244.384461                       # Core power per rank (mW)
system.mem_ctrls0_0.totalIdleTime        278345581250                       # Total Idle time Per DRAM Rank
system.mem_ctrls0_0.memoryStateTime::IDLE    373321500                       # Time in different power states
system.mem_ctrls0_0.memoryStateTime::REF   1301596000                       # Time in different power states
system.mem_ctrls0_0.memoryStateTime::SREF 297912568500                       # Time in different power states
system.mem_ctrls0_0.memoryStateTime::PRE_PDN  11615703000                       # Time in different power states
system.mem_ctrls0_0.memoryStateTime::ACT   1531268250                       # Time in different power states
system.mem_ctrls0_0.memoryStateTime::ACT_PDN  15499308750                       # Time in different power states
system.mem_ctrls0_1.actEnergy                78918420                       # Energy for activate commands per rank (pJ)
system.mem_ctrls0_1.preEnergy                41946135                       # Energy for precharge commands per rank (pJ)
system.mem_ctrls0_1.readEnergy              190352400                       # Energy for read commands per rank (pJ)
system.mem_ctrls0_1.writeEnergy              89183700                       # Energy for write commands per rank (pJ)
system.mem_ctrls0_1.refreshEnergy        7373221440.000002                       # Energy for refresh commands per rank (pJ)
system.mem_ctrls0_1.actBackEnergy          2497756530                       # Energy for active background per rank (pJ)
system.mem_ctrls0_1.preBackEnergy           405625920                       # Energy for precharge background per rank (pJ)
system.mem_ctrls0_1.actPowerDownEnergy    18502323690                       # Energy for active power-down per rank (pJ)
system.mem_ctrls0_1.prePowerDownEnergy    10178181120                       # Energy for precharge power-down per rank (pJ)
system.mem_ctrls0_1.selfRefreshEnergy    1317213324480                       # Energy for self refresh per rank (pJ)
system.mem_ctrls0_1.totalEnergy          1356572366175                       # Total energy per rank (pJ)
system.mem_ctrls0_1.averagePower           244.175741                       # Core power per rank (mW)
system.mem_ctrls0_1.totalIdleTime        280433340250                       # Total Idle time Per DRAM Rank
system.mem_ctrls0_1.memoryStateTime::IDLE    350822750                       # Time in different power states
system.mem_ctrls0_1.memoryStateTime::REF   1364892000                       # Time in different power states
system.mem_ctrls0_1.memoryStateTime::SREF 299168677750                       # Time in different power states
system.mem_ctrls0_1.memoryStateTime::PRE_PDN  12168259250                       # Time in different power states
system.mem_ctrls0_1.memoryStateTime::ACT   1551512250                       # Time in different power states
system.mem_ctrls0_1.memoryStateTime::ACT_PDN  16087924250                       # Time in different power states
system.mem_ctrls1.pwrStateResidencyTicks::UNDEFINED 5555721306500                       # Cumulative time (in ticks) in various power states
system.mem_ctrls1.bytes_read::ruby.dir_cntrl1      1252800                       # Number of bytes read from this memory
system.mem_ctrls1.bytes_read::total           1252800                       # Number of bytes read from this memory
system.mem_ctrls1.bytes_written::ruby.dir_cntrl1      1696320                       # Number of bytes written to this memory
system.mem_ctrls1.bytes_written::total        1696320                       # Number of bytes written to this memory
system.mem_ctrls1.num_reads::ruby.dir_cntrl1        19575                       # Number of read requests responded to by this memory
system.mem_ctrls1.num_reads::total              19575                       # Number of read requests responded to by this memory
system.mem_ctrls1.num_writes::ruby.dir_cntrl1        26505                       # Number of write requests responded to by this memory
system.mem_ctrls1.num_writes::total             26505                       # Number of write requests responded to by this memory
system.mem_ctrls1.bw_read::ruby.dir_cntrl1      3827386                       # Total read bandwidth from this memory (bytes/s)
system.mem_ctrls1.bw_read::total              3827386                       # Total read bandwidth from this memory (bytes/s)
system.mem_ctrls1.bw_write::ruby.dir_cntrl1      5182369                       # Write bandwidth from this memory (bytes/s)
system.mem_ctrls1.bw_write::total             5182369                       # Write bandwidth from this memory (bytes/s)
system.mem_ctrls1.bw_total::ruby.dir_cntrl1      9009755                       # Total bandwidth to/from this memory (bytes/s)
system.mem_ctrls1.bw_total::total             9009755                       # Total bandwidth to/from this memory (bytes/s)
system.mem_ctrls1.readReqs                      19575                       # Number of read requests accepted
system.mem_ctrls1.writeReqs                     26505                       # Number of write requests accepted
system.mem_ctrls1.readBursts                    19575                       # Number of DRAM read bursts, including those serviced by the write queue
system.mem_ctrls1.writeBursts                   26505                       # Number of DRAM write bursts, including those merged in the write queue
system.mem_ctrls1.bytesReadDRAM               1236672                       # Total number of bytes read from DRAM
system.mem_ctrls1.bytesReadWrQ                  16128                       # Total number of bytes read from write queue
system.mem_ctrls1.bytesWritten                1696704                       # Total number of bytes written to DRAM
system.mem_ctrls1.bytesReadSys                1252800                       # Total read bytes from the system interface side
system.mem_ctrls1.bytesWrittenSys             1696320                       # Total written bytes from the system interface side
system.mem_ctrls1.servicedByWrQ                   252                       # Number of DRAM read bursts serviced by the write queue
system.mem_ctrls1.mergedWrBursts                    5                       # Number of DRAM write bursts merged with an existing one
system.mem_ctrls1.neitherReadNorWriteReqs            0                       # Number of requests that are neither read nor write
system.mem_ctrls1.perBankRdBursts::0             1296                       # Per bank write bursts
system.mem_ctrls1.perBankRdBursts::1             1262                       # Per bank write bursts
system.mem_ctrls1.perBankRdBursts::2             1336                       # Per bank write bursts
system.mem_ctrls1.perBankRdBursts::3             1311                       # Per bank write bursts
system.mem_ctrls1.perBankRdBursts::4             1216                       # Per bank write bursts
system.mem_ctrls1.perBankRdBursts::5             1142                       # Per bank write bursts
system.mem_ctrls1.perBankRdBursts::6             1101                       # Per bank write bursts
system.mem_ctrls1.perBankRdBursts::7             1094                       # Per bank write bursts
system.mem_ctrls1.perBankRdBursts::8             1149                       # Per bank write bursts
system.mem_ctrls1.perBankRdBursts::9             1121                       # Per bank write bursts
system.mem_ctrls1.perBankRdBursts::10            1155                       # Per bank write bursts
system.mem_ctrls1.perBankRdBursts::11            1189                       # Per bank write bursts
system.mem_ctrls1.perBankRdBursts::12            1217                       # Per bank write bursts
system.mem_ctrls1.perBankRdBursts::13            1224                       # Per bank write bursts
system.mem_ctrls1.perBankRdBursts::14            1223                       # Per bank write bursts
system.mem_ctrls1.perBankRdBursts::15            1287                       # Per bank write bursts
system.mem_ctrls1.perBankWrBursts::0             1816                       # Per bank write bursts
system.mem_ctrls1.perBankWrBursts::1             1643                       # Per bank write bursts
system.mem_ctrls1.perBankWrBursts::2             1579                       # Per bank write bursts
system.mem_ctrls1.perBankWrBursts::3             1611                       # Per bank write bursts
system.mem_ctrls1.perBankWrBursts::4             1565                       # Per bank write bursts
system.mem_ctrls1.perBankWrBursts::5             1639                       # Per bank write bursts
system.mem_ctrls1.perBankWrBursts::6             1649                       # Per bank write bursts
system.mem_ctrls1.perBankWrBursts::7             1698                       # Per bank write bursts
system.mem_ctrls1.perBankWrBursts::8             1771                       # Per bank write bursts
system.mem_ctrls1.perBankWrBursts::9             1724                       # Per bank write bursts
system.mem_ctrls1.perBankWrBursts::10            1591                       # Per bank write bursts
system.mem_ctrls1.perBankWrBursts::11            1648                       # Per bank write bursts
system.mem_ctrls1.perBankWrBursts::12            1786                       # Per bank write bursts
system.mem_ctrls1.perBankWrBursts::13            1836                       # Per bank write bursts
system.mem_ctrls1.perBankWrBursts::14            1462                       # Per bank write bursts
system.mem_ctrls1.perBankWrBursts::15            1493                       # Per bank write bursts
system.mem_ctrls1.numRdRetry                        0                       # Number of times read queue was full causing retry
system.mem_ctrls1.numWrRetry                       65                       # Number of times write queue was full causing retry
system.mem_ctrls1.totGap                 284006407500                       # Total gap between requests
system.mem_ctrls1.readPktSize::0                    0                       # Read request sizes (log2)
system.mem_ctrls1.readPktSize::1                    0                       # Read request sizes (log2)
system.mem_ctrls1.readPktSize::2                    0                       # Read request sizes (log2)
system.mem_ctrls1.readPktSize::3                    0                       # Read request sizes (log2)
system.mem_ctrls1.readPktSize::4                    0                       # Read request sizes (log2)
system.mem_ctrls1.readPktSize::5                    0                       # Read request sizes (log2)
system.mem_ctrls1.readPktSize::6                19575                       # Read request sizes (log2)
system.mem_ctrls1.writePktSize::0                   0                       # Write request sizes (log2)
system.mem_ctrls1.writePktSize::1                   0                       # Write request sizes (log2)
system.mem_ctrls1.writePktSize::2                   0                       # Write request sizes (log2)
system.mem_ctrls1.writePktSize::3                   0                       # Write request sizes (log2)
system.mem_ctrls1.writePktSize::4                   0                       # Write request sizes (log2)
system.mem_ctrls1.writePktSize::5                   0                       # Write request sizes (log2)
system.mem_ctrls1.writePktSize::6               26505                       # Write request sizes (log2)
system.mem_ctrls1.rdQLenPdf::0                  19323                       # What read queue length does an incoming req see
system.mem_ctrls1.rdQLenPdf::1                      0                       # What read queue length does an incoming req see
system.mem_ctrls1.rdQLenPdf::2                      0                       # What read queue length does an incoming req see
system.mem_ctrls1.rdQLenPdf::3                      0                       # What read queue length does an incoming req see
system.mem_ctrls1.rdQLenPdf::4                      0                       # What read queue length does an incoming req see
system.mem_ctrls1.rdQLenPdf::5                      0                       # What read queue length does an incoming req see
system.mem_ctrls1.rdQLenPdf::6                      0                       # What read queue length does an incoming req see
system.mem_ctrls1.rdQLenPdf::7                      0                       # What read queue length does an incoming req see
system.mem_ctrls1.rdQLenPdf::8                      0                       # What read queue length does an incoming req see
system.mem_ctrls1.rdQLenPdf::9                      0                       # What read queue length does an incoming req see
system.mem_ctrls1.rdQLenPdf::10                     0                       # What read queue length does an incoming req see
system.mem_ctrls1.rdQLenPdf::11                     0                       # What read queue length does an incoming req see
system.mem_ctrls1.rdQLenPdf::12                     0                       # What read queue length does an incoming req see
system.mem_ctrls1.rdQLenPdf::13                     0                       # What read queue length does an incoming req see
system.mem_ctrls1.rdQLenPdf::14                     0                       # What read queue length does an incoming req see
system.mem_ctrls1.rdQLenPdf::15                     0                       # What read queue length does an incoming req see
system.mem_ctrls1.rdQLenPdf::16                     0                       # What read queue length does an incoming req see
system.mem_ctrls1.rdQLenPdf::17                     0                       # What read queue length does an incoming req see
system.mem_ctrls1.rdQLenPdf::18                     0                       # What read queue length does an incoming req see
system.mem_ctrls1.rdQLenPdf::19                     0                       # What read queue length does an incoming req see
system.mem_ctrls1.rdQLenPdf::20                     0                       # What read queue length does an incoming req see
system.mem_ctrls1.rdQLenPdf::21                     0                       # What read queue length does an incoming req see
system.mem_ctrls1.rdQLenPdf::22                     0                       # What read queue length does an incoming req see
system.mem_ctrls1.rdQLenPdf::23                     0                       # What read queue length does an incoming req see
system.mem_ctrls1.rdQLenPdf::24                     0                       # What read queue length does an incoming req see
system.mem_ctrls1.rdQLenPdf::25                     0                       # What read queue length does an incoming req see
system.mem_ctrls1.rdQLenPdf::26                     0                       # What read queue length does an incoming req see
system.mem_ctrls1.rdQLenPdf::27                     0                       # What read queue length does an incoming req see
system.mem_ctrls1.rdQLenPdf::28                     0                       # What read queue length does an incoming req see
system.mem_ctrls1.rdQLenPdf::29                     0                       # What read queue length does an incoming req see
system.mem_ctrls1.rdQLenPdf::30                     0                       # What read queue length does an incoming req see
system.mem_ctrls1.rdQLenPdf::31                     0                       # What read queue length does an incoming req see
system.mem_ctrls1.wrQLenPdf::0                      0                       # What write queue length does an incoming req see
system.mem_ctrls1.wrQLenPdf::1                      0                       # What write queue length does an incoming req see
system.mem_ctrls1.wrQLenPdf::2                      0                       # What write queue length does an incoming req see
system.mem_ctrls1.wrQLenPdf::3                      0                       # What write queue length does an incoming req see
system.mem_ctrls1.wrQLenPdf::4                      0                       # What write queue length does an incoming req see
system.mem_ctrls1.wrQLenPdf::5                      0                       # What write queue length does an incoming req see
system.mem_ctrls1.wrQLenPdf::6                      0                       # What write queue length does an incoming req see
system.mem_ctrls1.wrQLenPdf::7                      0                       # What write queue length does an incoming req see
system.mem_ctrls1.wrQLenPdf::8                      0                       # What write queue length does an incoming req see
system.mem_ctrls1.wrQLenPdf::9                      0                       # What write queue length does an incoming req see
system.mem_ctrls1.wrQLenPdf::10                     0                       # What write queue length does an incoming req see
system.mem_ctrls1.wrQLenPdf::11                     0                       # What write queue length does an incoming req see
system.mem_ctrls1.wrQLenPdf::12                     0                       # What write queue length does an incoming req see
system.mem_ctrls1.wrQLenPdf::13                     0                       # What write queue length does an incoming req see
system.mem_ctrls1.wrQLenPdf::14                     0                       # What write queue length does an incoming req see
system.mem_ctrls1.wrQLenPdf::15                   249                       # What write queue length does an incoming req see
system.mem_ctrls1.wrQLenPdf::16                   374                       # What write queue length does an incoming req see
system.mem_ctrls1.wrQLenPdf::17                  1440                       # What write queue length does an incoming req see
system.mem_ctrls1.wrQLenPdf::18                  1512                       # What write queue length does an incoming req see
system.mem_ctrls1.wrQLenPdf::19                  1562                       # What write queue length does an incoming req see
system.mem_ctrls1.wrQLenPdf::20                  1506                       # What write queue length does an incoming req see
system.mem_ctrls1.wrQLenPdf::21                  1451                       # What write queue length does an incoming req see
system.mem_ctrls1.wrQLenPdf::22                  1544                       # What write queue length does an incoming req see
system.mem_ctrls1.wrQLenPdf::23                  1495                       # What write queue length does an incoming req see
system.mem_ctrls1.wrQLenPdf::24                  1592                       # What write queue length does an incoming req see
system.mem_ctrls1.wrQLenPdf::25                  1690                       # What write queue length does an incoming req see
system.mem_ctrls1.wrQLenPdf::26                  1475                       # What write queue length does an incoming req see
system.mem_ctrls1.wrQLenPdf::27                  1404                       # What write queue length does an incoming req see
system.mem_ctrls1.wrQLenPdf::28                  1397                       # What write queue length does an incoming req see
system.mem_ctrls1.wrQLenPdf::29                  1380                       # What write queue length does an incoming req see
system.mem_ctrls1.wrQLenPdf::30                  1354                       # What write queue length does an incoming req see
system.mem_ctrls1.wrQLenPdf::31                  1346                       # What write queue length does an incoming req see
system.mem_ctrls1.wrQLenPdf::32                  1342                       # What write queue length does an incoming req see
system.mem_ctrls1.wrQLenPdf::33                   105                       # What write queue length does an incoming req see
system.mem_ctrls1.wrQLenPdf::34                    99                       # What write queue length does an incoming req see
system.mem_ctrls1.wrQLenPdf::35                    94                       # What write queue length does an incoming req see
system.mem_ctrls1.wrQLenPdf::36                    93                       # What write queue length does an incoming req see
system.mem_ctrls1.wrQLenPdf::37                    91                       # What write queue length does an incoming req see
system.mem_ctrls1.wrQLenPdf::38                    90                       # What write queue length does an incoming req see
system.mem_ctrls1.wrQLenPdf::39                    85                       # What write queue length does an incoming req see
system.mem_ctrls1.wrQLenPdf::40                    80                       # What write queue length does an incoming req see
system.mem_ctrls1.wrQLenPdf::41                    83                       # What write queue length does an incoming req see
system.mem_ctrls1.wrQLenPdf::42                    82                       # What write queue length does an incoming req see
system.mem_ctrls1.wrQLenPdf::43                    77                       # What write queue length does an incoming req see
system.mem_ctrls1.wrQLenPdf::44                    80                       # What write queue length does an incoming req see
system.mem_ctrls1.wrQLenPdf::45                    75                       # What write queue length does an incoming req see
system.mem_ctrls1.wrQLenPdf::46                    83                       # What write queue length does an incoming req see
system.mem_ctrls1.wrQLenPdf::47                    83                       # What write queue length does an incoming req see
system.mem_ctrls1.wrQLenPdf::48                    68                       # What write queue length does an incoming req see
system.mem_ctrls1.wrQLenPdf::49                    63                       # What write queue length does an incoming req see
system.mem_ctrls1.wrQLenPdf::50                    59                       # What write queue length does an incoming req see
system.mem_ctrls1.wrQLenPdf::51                    56                       # What write queue length does an incoming req see
system.mem_ctrls1.wrQLenPdf::52                    63                       # What write queue length does an incoming req see
system.mem_ctrls1.wrQLenPdf::53                    69                       # What write queue length does an incoming req see
system.mem_ctrls1.wrQLenPdf::54                    73                       # What write queue length does an incoming req see
system.mem_ctrls1.wrQLenPdf::55                    85                       # What write queue length does an incoming req see
system.mem_ctrls1.wrQLenPdf::56                    69                       # What write queue length does an incoming req see
system.mem_ctrls1.wrQLenPdf::57                    62                       # What write queue length does an incoming req see
system.mem_ctrls1.wrQLenPdf::58                    69                       # What write queue length does an incoming req see
system.mem_ctrls1.wrQLenPdf::59                    71                       # What write queue length does an incoming req see
system.mem_ctrls1.wrQLenPdf::60                    63                       # What write queue length does an incoming req see
system.mem_ctrls1.wrQLenPdf::61                    47                       # What write queue length does an incoming req see
system.mem_ctrls1.wrQLenPdf::62                    56                       # What write queue length does an incoming req see
system.mem_ctrls1.wrQLenPdf::63                   114                       # What write queue length does an incoming req see
system.mem_ctrls1.bytesPerActivate::samples        12020                       # Bytes accessed per row activation
system.mem_ctrls1.bytesPerActivate::mean   244.041265                       # Bytes accessed per row activation
system.mem_ctrls1.bytesPerActivate::gmean   171.112519                       # Bytes accessed per row activation
system.mem_ctrls1.bytesPerActivate::stdev   227.798358                       # Bytes accessed per row activation
system.mem_ctrls1.bytesPerActivate::0-127         3752     31.21%     31.21% # Bytes accessed per row activation
system.mem_ctrls1.bytesPerActivate::128-255         3502     29.13%     60.35% # Bytes accessed per row activation
system.mem_ctrls1.bytesPerActivate::256-383         2099     17.46%     77.81% # Bytes accessed per row activation
system.mem_ctrls1.bytesPerActivate::384-511         1435     11.94%     89.75% # Bytes accessed per row activation
system.mem_ctrls1.bytesPerActivate::512-639          451      3.75%     93.50% # Bytes accessed per row activation
system.mem_ctrls1.bytesPerActivate::640-767          131      1.09%     94.59% # Bytes accessed per row activation
system.mem_ctrls1.bytesPerActivate::768-895           76      0.63%     95.22% # Bytes accessed per row activation
system.mem_ctrls1.bytesPerActivate::896-1023           75      0.62%     95.85% # Bytes accessed per row activation
system.mem_ctrls1.bytesPerActivate::1024-1151          499      4.15%    100.00% # Bytes accessed per row activation
system.mem_ctrls1.bytesPerActivate::total        12020                       # Bytes accessed per row activation
system.mem_ctrls1.rdPerTurnAround::samples         1327                       # Reads before turning the bus around for writes
system.mem_ctrls1.rdPerTurnAround::mean     14.574228                       # Reads before turning the bus around for writes
system.mem_ctrls1.rdPerTurnAround::stdev     7.903282                       # Reads before turning the bus around for writes
system.mem_ctrls1.rdPerTurnAround::0-3            222     16.73%     16.73% # Reads before turning the bus around for writes
system.mem_ctrls1.rdPerTurnAround::4-7             28      2.11%     18.84% # Reads before turning the bus around for writes
system.mem_ctrls1.rdPerTurnAround::8-11            27      2.03%     20.87% # Reads before turning the bus around for writes
system.mem_ctrls1.rdPerTurnAround::12-15           20      1.51%     22.38% # Reads before turning the bus around for writes
system.mem_ctrls1.rdPerTurnAround::16-19          865     65.18%     87.57% # Reads before turning the bus around for writes
system.mem_ctrls1.rdPerTurnAround::20-23          108      8.14%     95.70% # Reads before turning the bus around for writes
system.mem_ctrls1.rdPerTurnAround::24-27           26      1.96%     97.66% # Reads before turning the bus around for writes
system.mem_ctrls1.rdPerTurnAround::28-31           16      1.21%     98.87% # Reads before turning the bus around for writes
system.mem_ctrls1.rdPerTurnAround::32-35            5      0.38%     99.25% # Reads before turning the bus around for writes
system.mem_ctrls1.rdPerTurnAround::36-39            2      0.15%     99.40% # Reads before turning the bus around for writes
system.mem_ctrls1.rdPerTurnAround::40-43            2      0.15%     99.55% # Reads before turning the bus around for writes
system.mem_ctrls1.rdPerTurnAround::44-47            2      0.15%     99.70% # Reads before turning the bus around for writes
system.mem_ctrls1.rdPerTurnAround::60-63            1      0.08%     99.77% # Reads before turning the bus around for writes
system.mem_ctrls1.rdPerTurnAround::72-75            2      0.15%     99.92% # Reads before turning the bus around for writes
system.mem_ctrls1.rdPerTurnAround::80-83            1      0.08%    100.00% # Reads before turning the bus around for writes
system.mem_ctrls1.rdPerTurnAround::total         1327                       # Reads before turning the bus around for writes
system.mem_ctrls1.wrPerTurnAround::samples         1327                       # Writes before turning the bus around for reads
system.mem_ctrls1.wrPerTurnAround::mean     19.978146                       # Writes before turning the bus around for reads
system.mem_ctrls1.wrPerTurnAround::gmean    18.454391                       # Writes before turning the bus around for reads
system.mem_ctrls1.wrPerTurnAround::stdev    11.234319                       # Writes before turning the bus around for reads
system.mem_ctrls1.wrPerTurnAround::16-17         1073     80.86%     80.86% # Writes before turning the bus around for reads
system.mem_ctrls1.wrPerTurnAround::18-19           26      1.96%     82.82% # Writes before turning the bus around for reads
system.mem_ctrls1.wrPerTurnAround::20-21            5      0.38%     83.20% # Writes before turning the bus around for reads
system.mem_ctrls1.wrPerTurnAround::22-23            5      0.38%     83.57% # Writes before turning the bus around for reads
system.mem_ctrls1.wrPerTurnAround::24-25           22      1.66%     85.23% # Writes before turning the bus around for reads
system.mem_ctrls1.wrPerTurnAround::26-27           13      0.98%     86.21% # Writes before turning the bus around for reads
system.mem_ctrls1.wrPerTurnAround::28-29           31      2.34%     88.55% # Writes before turning the bus around for reads
system.mem_ctrls1.wrPerTurnAround::30-31           13      0.98%     89.53% # Writes before turning the bus around for reads
system.mem_ctrls1.wrPerTurnAround::32-33           32      2.41%     91.94% # Writes before turning the bus around for reads
system.mem_ctrls1.wrPerTurnAround::34-35            6      0.45%     92.39% # Writes before turning the bus around for reads
system.mem_ctrls1.wrPerTurnAround::36-37           21      1.58%     93.97% # Writes before turning the bus around for reads
system.mem_ctrls1.wrPerTurnAround::38-39            5      0.38%     94.35% # Writes before turning the bus around for reads
system.mem_ctrls1.wrPerTurnAround::40-41            6      0.45%     94.80% # Writes before turning the bus around for reads
system.mem_ctrls1.wrPerTurnAround::42-43            3      0.23%     95.03% # Writes before turning the bus around for reads
system.mem_ctrls1.wrPerTurnAround::44-45            5      0.38%     95.40% # Writes before turning the bus around for reads
system.mem_ctrls1.wrPerTurnAround::46-47            5      0.38%     95.78% # Writes before turning the bus around for reads
system.mem_ctrls1.wrPerTurnAround::48-49           24      1.81%     97.59% # Writes before turning the bus around for reads
system.mem_ctrls1.wrPerTurnAround::50-51            3      0.23%     97.81% # Writes before turning the bus around for reads
system.mem_ctrls1.wrPerTurnAround::52-53            3      0.23%     98.04% # Writes before turning the bus around for reads
system.mem_ctrls1.wrPerTurnAround::54-55            1      0.08%     98.12% # Writes before turning the bus around for reads
system.mem_ctrls1.wrPerTurnAround::56-57            2      0.15%     98.27% # Writes before turning the bus around for reads
system.mem_ctrls1.wrPerTurnAround::58-59            1      0.08%     98.34% # Writes before turning the bus around for reads
system.mem_ctrls1.wrPerTurnAround::60-61            1      0.08%     98.42% # Writes before turning the bus around for reads
system.mem_ctrls1.wrPerTurnAround::62-63            1      0.08%     98.49% # Writes before turning the bus around for reads
system.mem_ctrls1.wrPerTurnAround::64-65            3      0.23%     98.72% # Writes before turning the bus around for reads
system.mem_ctrls1.wrPerTurnAround::66-67            1      0.08%     98.79% # Writes before turning the bus around for reads
system.mem_ctrls1.wrPerTurnAround::68-69            2      0.15%     98.94% # Writes before turning the bus around for reads
system.mem_ctrls1.wrPerTurnAround::70-71            3      0.23%     99.17% # Writes before turning the bus around for reads
system.mem_ctrls1.wrPerTurnAround::72-73            1      0.08%     99.25% # Writes before turning the bus around for reads
system.mem_ctrls1.wrPerTurnAround::76-77            1      0.08%     99.32% # Writes before turning the bus around for reads
system.mem_ctrls1.wrPerTurnAround::82-83            1      0.08%     99.40% # Writes before turning the bus around for reads
system.mem_ctrls1.wrPerTurnAround::92-93            1      0.08%     99.47% # Writes before turning the bus around for reads
system.mem_ctrls1.wrPerTurnAround::96-97            2      0.15%     99.62% # Writes before turning the bus around for reads
system.mem_ctrls1.wrPerTurnAround::98-99            2      0.15%     99.77% # Writes before turning the bus around for reads
system.mem_ctrls1.wrPerTurnAround::104-105            1      0.08%     99.85% # Writes before turning the bus around for reads
system.mem_ctrls1.wrPerTurnAround::120-121            1      0.08%     99.92% # Writes before turning the bus around for reads
system.mem_ctrls1.wrPerTurnAround::126-127            1      0.08%    100.00% # Writes before turning the bus around for reads
system.mem_ctrls1.wrPerTurnAround::total         1327                       # Writes before turning the bus around for reads
system.mem_ctrls1.totQLat                  1270859987                       # Total ticks spent queuing
system.mem_ctrls1.totMemAccLat             1633166237                       # Total ticks spent from burst creation until serviced by the DRAM
system.mem_ctrls1.totBusLat                  96615000                       # Total ticks spent in databus transfers
system.mem_ctrls1.avgQLat                    65769.29                       # Average queueing delay per DRAM burst
system.mem_ctrls1.avgBusLat                   5000.00                       # Average bus latency per DRAM burst
system.mem_ctrls1.avgMemAccLat               84519.29                       # Average memory access latency per DRAM burst
system.mem_ctrls1.avgRdBW                        3.78                       # Average DRAM read bandwidth in MiByte/s
system.mem_ctrls1.avgWrBW                        5.18                       # Average achieved write bandwidth in MiByte/s
system.mem_ctrls1.avgRdBWSys                     3.83                       # Average system read bandwidth in MiByte/s
system.mem_ctrls1.avgWrBWSys                     5.18                       # Average system write bandwidth in MiByte/s
system.mem_ctrls1.peakBW                     12800.00                       # Theoretical peak bandwidth in MiByte/s
system.mem_ctrls1.busUtil                        0.07                       # Data bus utilization in percentage
system.mem_ctrls1.busUtilRead                    0.03                       # Data bus utilization in percentage for reads
system.mem_ctrls1.busUtilWrite                   0.04                       # Data bus utilization in percentage for writes
system.mem_ctrls1.avgRdQLen                      1.00                       # Average read queue length when enqueuing
system.mem_ctrls1.avgWrQLen                     24.13                       # Average write queue length when enqueuing
system.mem_ctrls1.readRowHits                   13404                       # Number of row buffer hits during reads
system.mem_ctrls1.writeRowHits                  20410                       # Number of row buffer hits during writes
system.mem_ctrls1.readRowHitRate                69.37                       # Row buffer hit rate for reads
system.mem_ctrls1.writeRowHitRate               77.02                       # Row buffer hit rate for writes
system.mem_ctrls1.avgGap                   6163333.50                       # Average gap between requests
system.mem_ctrls1.pageHitRate                   73.79                       # Row buffer hit rate, read and write combined
system.mem_ctrls1_0.actEnergy                84152040                       # Energy for activate commands per rank (pJ)
system.mem_ctrls1_0.preEnergy                44727870                       # Energy for precharge commands per rank (pJ)
system.mem_ctrls1_0.readEnergy              190895040                       # Energy for read commands per rank (pJ)
system.mem_ctrls1_0.writeEnergy              91402200                       # Energy for write commands per rank (pJ)
system.mem_ctrls1_0.refreshEnergy        7589574720.000002                       # Energy for refresh commands per rank (pJ)
system.mem_ctrls1_0.actBackEnergy          2575844820                       # Energy for active background per rank (pJ)
system.mem_ctrls1_0.preBackEnergy           440261760                       # Energy for precharge background per rank (pJ)
system.mem_ctrls1_0.actPowerDownEnergy    18892301160                       # Energy for active power-down per rank (pJ)
system.mem_ctrls1_0.prePowerDownEnergy    10567618560                       # Energy for precharge power-down per rank (pJ)
system.mem_ctrls1_0.selfRefreshEnergy    1316748520875                       # Energy for self refresh per rank (pJ)
system.mem_ctrls1_0.totalEnergy          1357227224925                       # Total energy per rank (pJ)
system.mem_ctrls1_0.averagePower           244.293612                       # Core power per rank (mW)
system.mem_ctrls1_0.totalIdleTime        280987858000                       # Total Idle time Per DRAM Rank
system.mem_ctrls1_0.memoryStateTime::IDLE    342101500                       # Time in different power states
system.mem_ctrls1_0.memoryStateTime::REF   1271722000                       # Time in different power states
system.mem_ctrls1_0.memoryStateTime::SREF 301193462250                       # Time in different power states
system.mem_ctrls1_0.memoryStateTime::PRE_PDN  11165523000                       # Time in different power states
system.mem_ctrls1_0.memoryStateTime::ACT   1626884000                       # Time in different power states
system.mem_ctrls1_0.memoryStateTime::ACT_PDN  15310094250                       # Time in different power states
system.mem_ctrls1_1.actEnergy                74855760                       # Energy for activate commands per rank (pJ)
system.mem_ctrls1_1.preEnergy                39786780                       # Energy for precharge commands per rank (pJ)
system.mem_ctrls1_1.readEnergy              187767720                       # Energy for read commands per rank (pJ)
system.mem_ctrls1_1.writeEnergy              88228440                       # Energy for write commands per rank (pJ)
system.mem_ctrls1_1.refreshEnergy        7142116800.000002                       # Energy for refresh commands per rank (pJ)
system.mem_ctrls1_1.actBackEnergy          2488531080                       # Energy for active background per rank (pJ)
system.mem_ctrls1_1.preBackEnergy           403966080                       # Energy for precharge background per rank (pJ)
system.mem_ctrls1_1.actPowerDownEnergy    17917845120                       # Energy for active power-down per rank (pJ)
system.mem_ctrls1_1.prePowerDownEnergy     9730900800                       # Energy for precharge power-down per rank (pJ)
system.mem_ctrls1_1.selfRefreshEnergy    1317771655170                       # Energy for self refresh per rank (pJ)
system.mem_ctrls1_1.totalEnergy          1355847304020                       # Total energy per rank (pJ)
system.mem_ctrls1_1.averagePower           244.045234                       # Core power per rank (mW)
system.mem_ctrls1_1.totalIdleTime        280729595500                       # Total Idle time Per DRAM Rank
system.mem_ctrls1_1.memoryStateTime::IDLE    366500250                       # Time in different power states
system.mem_ctrls1_1.memoryStateTime::REF   1314720000                       # Time in different power states
system.mem_ctrls1_1.memoryStateTime::SREF 300443134750                       # Time in different power states
system.mem_ctrls1_1.memoryStateTime::PRE_PDN  11626093750                       # Time in different power states
system.mem_ctrls1_1.memoryStateTime::ACT   1586690500                       # Time in different power states
system.mem_ctrls1_1.memoryStateTime::ACT_PDN  15344703250                       # Time in different power states
system.mem_ctrls2.pwrStateResidencyTicks::UNDEFINED 5555721306500                       # Cumulative time (in ticks) in various power states
system.mem_ctrls2.bytes_read::ruby.dir_cntrl2      1251776                       # Number of bytes read from this memory
system.mem_ctrls2.bytes_read::total           1251776                       # Number of bytes read from this memory
system.mem_ctrls2.bytes_written::ruby.dir_cntrl2      1682176                       # Number of bytes written to this memory
system.mem_ctrls2.bytes_written::total        1682176                       # Number of bytes written to this memory
system.mem_ctrls2.num_reads::ruby.dir_cntrl2        19559                       # Number of read requests responded to by this memory
system.mem_ctrls2.num_reads::total              19559                       # Number of read requests responded to by this memory
system.mem_ctrls2.num_writes::ruby.dir_cntrl2        26284                       # Number of write requests responded to by this memory
system.mem_ctrls2.num_writes::total             26284                       # Number of write requests responded to by this memory
system.mem_ctrls2.bw_read::ruby.dir_cntrl2      3824258                       # Total read bandwidth from this memory (bytes/s)
system.mem_ctrls2.bw_read::total              3824258                       # Total read bandwidth from this memory (bytes/s)
system.mem_ctrls2.bw_write::ruby.dir_cntrl2      5139158                       # Write bandwidth from this memory (bytes/s)
system.mem_ctrls2.bw_write::total             5139158                       # Write bandwidth from this memory (bytes/s)
system.mem_ctrls2.bw_total::ruby.dir_cntrl2      8963416                       # Total bandwidth to/from this memory (bytes/s)
system.mem_ctrls2.bw_total::total             8963416                       # Total bandwidth to/from this memory (bytes/s)
system.mem_ctrls2.readReqs                      19559                       # Number of read requests accepted
system.mem_ctrls2.writeReqs                     26284                       # Number of write requests accepted
system.mem_ctrls2.readBursts                    19559                       # Number of DRAM read bursts, including those serviced by the write queue
system.mem_ctrls2.writeBursts                   26284                       # Number of DRAM write bursts, including those merged in the write queue
system.mem_ctrls2.bytesReadDRAM               1235648                       # Total number of bytes read from DRAM
system.mem_ctrls2.bytesReadWrQ                  16128                       # Total number of bytes read from write queue
system.mem_ctrls2.bytesWritten                1681792                       # Total number of bytes written to DRAM
system.mem_ctrls2.bytesReadSys                1251776                       # Total read bytes from the system interface side
system.mem_ctrls2.bytesWrittenSys             1682176                       # Total written bytes from the system interface side
system.mem_ctrls2.servicedByWrQ                   252                       # Number of DRAM read bursts serviced by the write queue
system.mem_ctrls2.mergedWrBursts                    6                       # Number of DRAM write bursts merged with an existing one
system.mem_ctrls2.neitherReadNorWriteReqs            0                       # Number of requests that are neither read nor write
system.mem_ctrls2.perBankRdBursts::0             1293                       # Per bank write bursts
system.mem_ctrls2.perBankRdBursts::1             1264                       # Per bank write bursts
system.mem_ctrls2.perBankRdBursts::2             1337                       # Per bank write bursts
system.mem_ctrls2.perBankRdBursts::3             1316                       # Per bank write bursts
system.mem_ctrls2.perBankRdBursts::4             1214                       # Per bank write bursts
system.mem_ctrls2.perBankRdBursts::5             1138                       # Per bank write bursts
system.mem_ctrls2.perBankRdBursts::6             1097                       # Per bank write bursts
system.mem_ctrls2.perBankRdBursts::7             1107                       # Per bank write bursts
system.mem_ctrls2.perBankRdBursts::8             1149                       # Per bank write bursts
system.mem_ctrls2.perBankRdBursts::9             1100                       # Per bank write bursts
system.mem_ctrls2.perBankRdBursts::10            1148                       # Per bank write bursts
system.mem_ctrls2.perBankRdBursts::11            1196                       # Per bank write bursts
system.mem_ctrls2.perBankRdBursts::12            1211                       # Per bank write bursts
system.mem_ctrls2.perBankRdBursts::13            1229                       # Per bank write bursts
system.mem_ctrls2.perBankRdBursts::14            1224                       # Per bank write bursts
system.mem_ctrls2.perBankRdBursts::15            1284                       # Per bank write bursts
system.mem_ctrls2.perBankWrBursts::0             1828                       # Per bank write bursts
system.mem_ctrls2.perBankWrBursts::1             1655                       # Per bank write bursts
[...]
system.ruby.L1Cache_Controller.IS.Ifetch::total           36                      
system.ruby.L1Cache_Controller.IS.Data_Exclusive |      617599    100.00%    100.00% |           0      0.00%    100.00% |           0      0.00%    100.00% |           0      0.00%    100.00% |           0      0.00%    100.00% |           0      0.00%    100.00% |           0      0.00%    100.00% |           0      0.00%    100.00%
system.ruby.L1Cache_Controller.IS.Data_Exclusive::total       617599                      
system.ruby.L1Cache_Controller.IS.Data_all_Acks |      600613    100.00%    100.00% |           0      0.00%    100.00% |           0      0.00%    100.00% |           0      0.00%    100.00% |           0      0.00%    100.00% |           0      0.00%    100.00% |           0      0.00%    100.00% |           0      0.00%    100.00%
system.ruby.L1Cache_Controller.IS.Data_all_Acks::total       600613                      
system.ruby.L1Cache_Controller.IS.WB_Ack |     1100732    100.00%    100.00% |           0      0.00%    100.00% |           0      0.00%    100.00% |           0      0.00%    100.00% |           0      0.00%    100.00% |           0      0.00%    100.00% |           0      0.00%    100.00% |           0      0.00%    100.00%
system.ruby.L1Cache_Controller.IS.WB_Ack::total      1100732                      
system.ruby.L1Cache_Controller.IS.PF_Load |      617085    100.00%    100.00% |           0      0.00%    100.00% |           0      0.00%    100.00% |           0      0.00%    100.00% |           0      0.00%    100.00% |           0      0.00%    100.00% |           0      0.00%    100.00% |           0      0.00%    100.00%
system.ruby.L1Cache_Controller.IS.PF_Load::total       617085                      
system.ruby.L1Cache_Controller.IS.PF_Ifetch |      599466    100.00%    100.00% |           0      0.00%    100.00% |           0      0.00%    100.00% |           0      0.00%    100.00% |           0      0.00%    100.00% |           0      0.00%    100.00% |           0      0.00%    100.00% |           0      0.00%    100.00%
system.ruby.L1Cache_Controller.IS.PF_Ifetch::total       599466                      
system.ruby.L1Cache_Controller.IM.Data_all_Acks |      551441    100.00%    100.00% |           0      0.00%    100.00% |           0      0.00%    100.00% |           0      0.00%    100.00% |           0      0.00%    100.00% |           0      0.00%    100.00% |           0      0.00%    100.00% |           0      0.00%    100.00%
system.ruby.L1Cache_Controller.IM.Data_all_Acks::total       551441                      
system.ruby.L1Cache_Controller.IM.PF_Store |      433777    100.00%    100.00% |           0      0.00%    100.00% |           0      0.00%    100.00% |           0      0.00%    100.00% |           0      0.00%    100.00% |           0      0.00%    100.00% |           0      0.00%    100.00% |           0      0.00%    100.00%
system.ruby.L1Cache_Controller.IM.PF_Store::total       433777                      
system.ruby.L1Cache_Controller.SM.Fwd_GETX |      117525    100.00%    100.00% |           0      0.00%    100.00% |           0      0.00%    100.00% |           0      0.00%    100.00% |           0      0.00%    100.00% |           0      0.00%    100.00% |           0      0.00%    100.00% |           0      0.00%    100.00%
system.ruby.L1Cache_Controller.SM.Fwd_GETX::total       117525                      
system.ruby.L1Cache_Controller.M_I.WB_Ack |      551035    100.00%    100.00% |           0      0.00%    100.00% |           0      0.00%    100.00% |           0      0.00%    100.00% |           0      0.00%    100.00% |           0      0.00%    100.00% |           0      0.00%    100.00% |           0      0.00%    100.00%
system.ruby.L1Cache_Controller.M_I.WB_Ack::total       551035                      
system.ruby.L2Cache_Controller.L1_GET_INSTR |       79648     13.26%     13.26% |       77843     12.96%     26.23% |       73698     12.27%     38.50% |       72064     12.00%     50.50% |       72177     12.02%     62.52% |       79261     13.20%     75.72% |       78310     13.04%     88.76% |       67498     11.24%    100.00%
system.ruby.L2Cache_Controller.L1_GET_INSTR::total       600499                      
system.ruby.L2Cache_Controller.L1_GETS   |       96316     15.59%     15.59% |       76594     12.40%     27.99% |       78437     12.70%     40.69% |       74531     12.07%     52.76% |       72168     11.68%     64.44% |       72255     11.70%     76.14% |       71475     11.57%     87.71% |       75937     12.29%    100.00%
system.ruby.L2Cache_Controller.L1_GETS::total       617713                      
system.ruby.L2Cache_Controller.L1_GETX   |       76858     13.94%     13.94% |       67891     12.31%     26.25% |       68984     12.51%     38.76% |       68182     12.36%     51.12% |       66124     11.99%     63.11% |       68885     12.49%     75.61% |       66381     12.04%     87.64% |       68136     12.36%    100.00%
system.ruby.L2Cache_Controller.L1_GETX::total       551441                      
system.ruby.L2Cache_Controller.L1_PUTX   |      231854     14.04%     14.04% |      208580     12.63%     26.66% |      206801     12.52%     39.18% |      200809     12.16%     51.34% |      197309     11.95%     63.29% |      206846     12.52%     75.81% |      202589     12.26%     88.07% |      196979     11.93%    100.00%
system.ruby.L2Cache_Controller.L1_PUTX::total      1651767                      
system.ruby.L2Cache_Controller.L2_Replacement |       17154     12.54%     12.54% |       17273     12.62%     25.16% |       17052     12.46%     37.63% |       17207     12.58%     50.20% |       17063     12.47%     62.67% |       17160     12.54%     75.22% |       16893     12.35%     87.56% |       17015     12.44%    100.00%
system.ruby.L2Cache_Controller.L2_Replacement::total       136817                      
system.ruby.L2Cache_Controller.L2_Replacement_clean |         849     12.94%     12.94% |         836     12.74%     25.67% |         841     12.81%     38.49% |         820     12.49%     50.98% |         806     12.28%     63.26% |         798     12.16%     75.42% |         785     11.96%     87.38% |         828     12.62%    100.00%
system.ruby.L2Cache_Controller.L2_Replacement_clean::total         6563                      
system.ruby.L2Cache_Controller.Mem_Data  |       19866     12.68%     12.68% |       19575     12.50%     25.18% |       19559     12.49%     37.67% |       19531     12.47%     50.14% |       19509     12.46%     62.60% |       19517     12.46%     75.06% |       19524     12.47%     87.52% |       19541     12.48%    100.00%
system.ruby.L2Cache_Controller.Mem_Data::total       156622                      
system.ruby.L2Cache_Controller.Mem_Ack   |       18484     12.71%     12.71% |       18339     12.61%     25.32% |       18111     12.46%     37.78% |       18245     12.55%     50.33% |       18087     12.44%     62.77% |       18176     12.50%     75.27% |       17898     12.31%     87.58% |       18064     12.42%    100.00%
system.ruby.L2Cache_Controller.Mem_Ack::total       145404                      
system.ruby.L2Cache_Controller.WB_Data   |         261     74.15%     74.15% |          12      3.41%     77.56% |          12      3.41%     80.97% |          13      3.69%     84.66% |          13      3.69%     88.35% |          14      3.98%     92.33% |          12      3.41%     95.74% |          15      4.26%    100.00%
system.ruby.L2Cache_Controller.WB_Data::total          352                      
system.ruby.L2Cache_Controller.Ack_all   |         319     12.73%     12.73% |         327     13.05%     25.79% |         319     12.73%     38.52% |         301     12.02%     50.54% |         310     12.38%     62.91% |         303     12.10%     75.01% |         296     11.82%     86.83% |         330     13.17%    100.00%
system.ruby.L2Cache_Controller.Ack_all::total         2505                      
system.ruby.L2Cache_Controller.Unblock   |      173174     14.81%     14.81% |      144484     12.36%     27.17% |      147345     12.60%     39.78% |      142685     12.21%     51.98% |      138291     11.83%     63.81% |      141139     12.07%     75.88% |      137850     11.79%     87.68% |      144072     12.32%    100.00%
system.ruby.L2Cache_Controller.Unblock::total      1169040                      
system.ruby.L2Cache_Controller.MEM_Inv   |         962     23.76%     23.76% |         460     11.36%     35.13% |         436     10.77%     45.90% |         436     10.77%     56.67% |         436     10.77%     67.44% |         436     10.77%     78.21% |         440     10.87%     89.08% |         442     10.92%    100.00%
system.ruby.L2Cache_Controller.MEM_Inv::total         4048                      
system.ruby.L2Cache_Controller.NP.L1_GET_INSTR |         541     12.37%     12.37% |         552     12.63%     25.00% |         568     12.99%     37.99% |         532     12.17%     50.16% |         527     12.05%     62.21% |         540     12.35%     74.57% |         556     12.72%     87.28% |         556     12.72%    100.00%
system.ruby.L2Cache_Controller.NP.L1_GET_INSTR::total         4372                      
system.ruby.L2Cache_Controller.NP.L1_GETS |        6090     12.97%     12.97% |        5784     12.32%     25.29% |        5827     12.41%     37.70% |        5960     12.69%     50.40% |        5779     12.31%     62.71% |        5937     12.65%     75.35% |        5870     12.50%     87.85% |        5703     12.15%    100.00%
system.ruby.L2Cache_Controller.NP.L1_GETS::total        46950                      
system.ruby.L2Cache_Controller.NP.L1_GETX |       13235     12.57%     12.57% |       13239     12.57%     25.14% |       13164     12.50%     37.64% |       13039     12.38%     50.03% |       13203     12.54%     62.56% |       13040     12.38%     74.95% |       13098     12.44%     87.39% |       13282     12.61%    100.00%
system.ruby.L2Cache_Controller.NP.L1_GETX::total       105300                      
system.ruby.L2Cache_Controller.SS.L1_GET_INSTR |       79105     13.27%     13.27% |       77291     12.97%     26.24% |       73127     12.27%     38.50% |       71532     12.00%     50.50% |       71649     12.02%     62.52% |       78719     13.21%     75.73% |       77752     13.04%     88.77% |       66942     11.23%    100.00%
system.ruby.L2Cache_Controller.SS.L1_GET_INSTR::total       596117                      
system.ruby.L2Cache_Controller.SS.L1_GETS |           0      0.00%      0.00% |           1      0.88%      0.88% |          76     66.67%     67.54% |          28     24.56%     92.11% |           1      0.88%     92.98% |           1      0.88%     93.86% |           6      5.26%     99.12% |           1      0.88%    100.00%
system.ruby.L2Cache_Controller.SS.L1_GETS::total          114                      
system.ruby.L2Cache_Controller.SS.L1_PUTX |       79648     13.26%     13.26% |       77844     12.96%     26.22% |       73775     12.28%     38.51% |       72092     12.00%     50.51% |       72178     12.02%     62.53% |       79262     13.20%     75.72% |       78316     13.04%     88.76% |       67499     11.24%    100.00%
system.ruby.L2Cache_Controller.SS.L1_PUTX::total       600614                      
system.ruby.L2Cache_Controller.SS.L2_Replacement_clean |         319     12.78%     12.78% |         326     13.06%     25.83% |         318     12.74%     38.57% |         300     12.01%     50.58% |         309     12.37%     62.96% |         302     12.09%     75.05% |         295     11.81%     86.86% |         328     13.14%    100.00%
system.ruby.L2Cache_Controller.SS.L2_Replacement_clean::total         2497                      
system.ruby.L2Cache_Controller.M.L1_GET_INSTR |           2     20.00%     20.00% |           0      0.00%     20.00% |           3     30.00%     50.00% |           0      0.00%     50.00% |           1     10.00%     60.00% |           2     20.00%     80.00% |           2     20.00%    100.00% |           0      0.00%    100.00%
system.ruby.L2Cache_Controller.M.L1_GET_INSTR::total           10                      
system.ruby.L2Cache_Controller.M.L1_GETS |       90226     15.81%     15.81% |       70809     12.41%     28.22% |       72534     12.71%     40.93% |       68543     12.01%     52.94% |       66388     11.63%     64.58% |       66317     11.62%     76.20% |       65599     11.50%     87.69% |       70233     12.31%    100.00%
system.ruby.L2Cache_Controller.M.L1_GETS::total       570649                      
system.ruby.L2Cache_Controller.M.L1_GETX |       42916     13.06%     13.06% |       40918     12.45%     25.51% |       41515     12.63%     38.14% |       41189     12.53%     50.68% |       39775     12.10%     62.78% |       42305     12.87%     75.66% |       39719     12.09%     87.74% |       40279     12.26%    100.00%
system.ruby.L2Cache_Controller.M.L1_GETX::total       328616                      
system.ruby.L2Cache_Controller.M.L2_Replacement |       17154     12.54%     12.54% |       17273     12.62%     25.16% |       17052     12.46%     37.63% |       17207     12.58%     50.20% |       17063     12.47%     62.67% |       17160     12.54%     75.22% |       16893     12.35%     87.56% |       17015     12.44%    100.00%
system.ruby.L2Cache_Controller.M.L2_Replacement::total       136817                      
system.ruby.L2Cache_Controller.M.L2_Replacement_clean |         530     13.03%     13.03% |         510     12.54%     25.58% |         523     12.86%     38.44% |         520     12.79%     51.23% |         497     12.22%     63.45% |         496     12.20%     75.65% |         490     12.05%     87.70% |         500     12.30%    100.00%
system.ruby.L2Cache_Controller.M.L2_Replacement_clean::total         4066                      
system.ruby.L2Cache_Controller.M.MEM_Inv |         220     13.22%     13.22% |         217     13.04%     26.26% |         205     12.32%     38.58% |         204     12.26%     50.84% |         204     12.26%     63.10% |         203     12.20%     75.30% |         207     12.44%     87.74% |         204     12.26%    100.00%
system.ruby.L2Cache_Controller.M.MEM_Inv::total         1664                      
system.ruby.L2Cache_Controller.MT.L1_GETX |       20707     17.62%     17.62% |       13734     11.69%     29.31% |       14305     12.17%     41.48% |       13954     11.87%     53.35% |       13146     11.19%     64.54% |       13540     11.52%     76.06% |       13564     11.54%     87.60% |       14575     12.40%    100.00%
system.ruby.L2Cache_Controller.MT.L1_GETX::total       117525                      
system.ruby.L2Cache_Controller.MT.L1_PUTX |      152206     14.48%     14.48% |      130736     12.44%     26.92% |      133026     12.66%     39.57% |      128717     12.25%     51.82% |      125131     11.90%     63.72% |      127584     12.14%     75.86% |      124273     11.82%     87.68% |      129480     12.32%    100.00%
system.ruby.L2Cache_Controller.MT.L1_PUTX::total      1051153                      
system.ruby.L2Cache_Controller.MT.MEM_Inv |         261     72.50%     72.50% |          13      3.61%     76.11% |          13      3.61%     79.72% |          14      3.89%     83.61% |          14      3.89%     87.50% |          15      4.17%     91.67% |          13      3.61%     95.28% |          17      4.72%    100.00%
system.ruby.L2Cache_Controller.MT.MEM_Inv::total          360                      
system.ruby.L2Cache_Controller.M_I.Mem_Ack |       18484     12.71%     12.71% |       18339     12.61%     25.32% |       18111     12.46%     37.78% |       18245     12.55%     50.33% |       18087     12.44%     62.77% |       18176     12.50%     75.27% |       17898     12.31%     87.58% |       18064     12.42%    100.00%
system.ruby.L2Cache_Controller.M_I.Mem_Ack::total       145404                      
system.ruby.L2Cache_Controller.M_I.MEM_Inv |         220     13.22%     13.22% |         217     13.04%     26.26% |         205     12.32%     38.58% |         204     12.26%     50.84% |         204     12.26%     63.10% |         203     12.20%     75.30% |         207     12.44%     87.74% |         204     12.26%    100.00%
system.ruby.L2Cache_Controller.M_I.MEM_Inv::total         1664                      
system.ruby.L2Cache_Controller.MT_I.WB_Data |         261     74.15%     74.15% |          12      3.41%     77.56% |          12      3.41%     80.97% |          13      3.69%     84.66% |          13      3.69%     88.35% |          14      3.98%     92.33% |          12      3.41%     95.74% |          15      4.26%    100.00%
system.ruby.L2Cache_Controller.MT_I.WB_Data::total          352                      
system.ruby.L2Cache_Controller.MT_I.Ack_all |           0      0.00%      0.00% |           1     12.50%     12.50% |           1     12.50%     25.00% |           1     12.50%     37.50% |           1     12.50%     50.00% |           1     12.50%     62.50% |           1     12.50%     75.00% |           2     25.00%    100.00%
system.ruby.L2Cache_Controller.MT_I.Ack_all::total            8                      
system.ruby.L2Cache_Controller.MT_I.MEM_Inv |         261     72.50%     72.50% |          13      3.61%     76.11% |          13      3.61%     79.72% |          14      3.89%     83.61% |          14      3.89%     87.50% |          15      4.17%     91.67% |          13      3.61%     95.28% |          17      4.72%    100.00%
system.ruby.L2Cache_Controller.MT_I.MEM_Inv::total          360                      
system.ruby.L2Cache_Controller.I_I.Ack_all |         319     12.78%     12.78% |         326     13.06%     25.83% |         318     12.74%     38.57% |         300     12.01%     50.58% |         309     12.37%     62.96% |         302     12.09%     75.05% |         295     11.81%     86.86% |         328     13.14%    100.00%
system.ruby.L2Cache_Controller.I_I.Ack_all::total         2497                      
system.ruby.L2Cache_Controller.ISS.Mem_Data |        6090     12.97%     12.97% |        5784     12.32%     25.29% |        5827     12.41%     37.70% |        5960     12.69%     50.40% |        5779     12.31%     62.71% |        5937     12.65%     75.35% |        5870     12.50%     87.85% |        5703     12.15%    100.00%
system.ruby.L2Cache_Controller.ISS.Mem_Data::total        46950                      
system.ruby.L2Cache_Controller.IS.Mem_Data |         541     12.37%     12.37% |         552     12.63%     25.00% |         568     12.99%     37.99% |         532     12.17%     50.16% |         527     12.05%     62.21% |         540     12.35%     74.57% |         556     12.72%     87.28% |         556     12.72%    100.00%
system.ruby.L2Cache_Controller.IS.Mem_Data::total         4372                      
system.ruby.L2Cache_Controller.IM.Mem_Data |       13235     12.57%     12.57% |       13239     12.57%     25.14% |       13164     12.50%     37.64% |       13039     12.38%     50.03% |       13203     12.54%     62.56% |       13040     12.38%     74.95% |       13098     12.44%     87.39% |       13282     12.61%    100.00%
system.ruby.L2Cache_Controller.IM.Mem_Data::total       105300                      
system.ruby.L2Cache_Controller.MT_MB.Unblock |      173174     14.81%     14.81% |      144484     12.36%     27.17% |      147345     12.60%     39.78% |      142685     12.21%     51.98% |      138291     11.83%     63.81% |      141139     12.07%     75.88% |      137850     11.79%     87.68% |      144072     12.32%    100.00%
system.ruby.L2Cache_Controller.MT_MB.Unblock::total      1169040                      

---------- End Simulation Statistics   ----------
