
---------- Begin Simulation Statistics ----------
sim_seconds                                  0.526624                       # Number of seconds simulated
sim_ticks                                526624174500                       # Number of ticks simulated
final_tick                               526624174500                       # Number of ticks from beginning of simulation (restored from checkpoints and never reset)
sim_freq                                 1000000000000                       # Frequency of simulated ticks
host_inst_rate                                1830936                       # Simulator instruction rate (inst/s)
host_op_rate                                  2075987                       # Simulator op (including micro ops) rate (op/s)
host_tick_rate                             1556947104                       # Simulator tick rate (ticks/s)
host_mem_usage                                 678740                       # Number of bytes of host memory used
host_seconds                                   338.24                       # Real time elapsed on the host
sim_insts                                   619298456                       # Number of instructions simulated
sim_ops                                     702185156                       # Number of ops (including micro ops) simulated
system.voltage_domain.voltage                       1                       # Voltage in Volts
system.clk_domain.clock                          1000                       # Clock period in ticks
system.mem_ctrls.pwrStateResidencyTicks::UNDEFINED 526624174500                       # Cumulative time (in ticks) in various power states
system.mem_ctrls.bytes_read::cpu0.inst          75776                       # Number of bytes read from this memory
system.mem_ctrls.bytes_read::cpu0.data        4487104                       # Number of bytes read from this memory
system.mem_ctrls.bytes_read::cpu1.inst           5824                       # Number of bytes read from this memory
system.mem_ctrls.bytes_read::cpu1.data        2402752                       # Number of bytes read from this memory
system.mem_ctrls.bytes_read::total            6971456                       # Number of bytes read from this memory
system.mem_ctrls.bytes_inst_read::cpu0.inst        75776                       # Number of instructions bytes read from this memory
system.mem_ctrls.bytes_inst_read::cpu1.inst         5824                       # Number of instructions bytes read from this memory
system.mem_ctrls.bytes_inst_read::total         81600                       # Number of instructions bytes read from this memory
system.mem_ctrls.bytes_written::writebacks      2953664                       # Number of bytes written to this memory
system.mem_ctrls.bytes_written::total         2953664                       # Number of bytes written to this memory
system.mem_ctrls.num_reads::cpu0.inst            1184                       # Number of read requests responded to by this memory
system.mem_ctrls.num_reads::cpu0.data           70111                       # Number of read requests responded to by this memory
system.mem_ctrls.num_reads::cpu1.inst              91                       # Number of read requests responded to by this memory
system.mem_ctrls.num_reads::cpu1.data           37543                       # Number of read requests responded to by this memory
system.mem_ctrls.num_reads::total              108929                       # Number of read requests responded to by this memory
system.mem_ctrls.num_writes::writebacks         46151                       # Number of write requests responded to by this memory
system.mem_ctrls.num_writes::total              46151                       # Number of write requests responded to by this memory
system.mem_ctrls.bw_read::cpu0.inst            143890                       # Total read bandwidth from this memory (bytes/s)
system.mem_ctrls.bw_read::cpu0.data           8520505                       # Total read bandwidth from this memory (bytes/s)
system.mem_ctrls.bw_read::cpu1.inst             11059                       # Total read bandwidth from this memory (bytes/s)
system.mem_ctrls.bw_read::cpu1.data           4562555                       # Total read bandwidth from this memory (bytes/s)
system.mem_ctrls.bw_read::total              13238010                       # Total read bandwidth from this memory (bytes/s)
system.mem_ctrls.bw_inst_read::cpu0.inst       143890                       # Instruction read bandwidth from this memory (bytes/s)
system.mem_ctrls.bw_inst_read::cpu1.inst        11059                       # Instruction read bandwidth from this memory (bytes/s)
system.mem_ctrls.bw_inst_read::total           154949                       # Instruction read bandwidth from this memory (bytes/s)
system.mem_ctrls.bw_write::writebacks         5608675                       # Write bandwidth from this memory (bytes/s)
system.mem_ctrls.bw_write::total              5608675                       # Write bandwidth from this memory (bytes/s)
system.mem_ctrls.bw_total::writebacks         5608675                       # Total bandwidth to/from this memory (bytes/s)
system.mem_ctrls.bw_total::cpu0.inst           143890                       # Total bandwidth to/from this memory (bytes/s)
system.mem_ctrls.bw_total::cpu0.data          8520505                       # Total bandwidth to/from this memory (bytes/s)
system.mem_ctrls.bw_total::cpu1.inst            11059                       # Total bandwidth to/from this memory (bytes/s)
system.mem_ctrls.bw_total::cpu1.data          4562555                       # Total bandwidth to/from this memory (bytes/s)
system.mem_ctrls.bw_total::total             18846685                       # Total bandwidth to/from this memory (bytes/s)
system.mem_ctrls.readReqs                      108929                       # Number of read requests accepted
system.mem_ctrls.writeReqs                      46151                       # Number of write requests accepted
system.mem_ctrls.readBursts                    108929                       # Number of DRAM read bursts, including those serviced by the write queue
system.mem_ctrls.writeBursts                    46151                       # Number of DRAM write bursts, including those merged in the write queue
system.mem_ctrls.bytesReadDRAM                6943104                       # Total number of bytes read from DRAM
system.mem_ctrls.bytesReadWrQ                   28352                       # Total number of bytes read from write queue
system.mem_ctrls.bytesWritten                 2952384                       # Total number of bytes written to DRAM
system.mem_ctrls.bytesReadSys                 6971456                       # Total read bytes from the system interface side
system.mem_ctrls.bytesWrittenSys              2953664                       # Total written bytes from the system interface side
system.mem_ctrls.servicedByWrQ                    443                       # Number of DRAM read bursts serviced by the write queue
system.mem_ctrls.mergedWrBursts                     0                       # Number of DRAM write bursts merged with an existing one
system.mem_ctrls.neitherReadNorWriteReqs            0                       # Number of requests that are neither read nor write
system.mem_ctrls.perBankRdBursts::0              7045                       # Per bank write bursts
system.mem_ctrls.perBankRdBursts::1              6611                       # Per bank write bursts
system.mem_ctrls.perBankRdBursts::2              7129                       # Per bank write bursts
system.mem_ctrls.perBankRdBursts::3              6513                       # Per bank write bursts
system.mem_ctrls.perBankRdBursts::4              6505                       # Per bank write bursts
system.mem_ctrls.perBankRdBursts::5              6616                       # Per bank write bursts
system.mem_ctrls.perBankRdBursts::6              6846                       # Per bank write bursts
system.mem_ctrls.perBankRdBursts::7              6336                       # Per bank write bursts
system.mem_ctrls.perBankRdBursts::8              6556                       # Per bank write bursts
system.mem_ctrls.perBankRdBursts::9              6509                       # Per bank write bursts
system.mem_ctrls.perBankRdBursts::10             6641                       # Per bank write bursts
system.mem_ctrls.perBankRdBursts::11             6642                       # Per bank write bursts
system.mem_ctrls.perBankRdBursts::12             7795                       # Per bank write bursts
system.mem_ctrls.perBankRdBursts::13             6687                       # Per bank write bursts
system.mem_ctrls.perBankRdBursts::14             7577                       # Per bank write bursts
system.mem_ctrls.perBankRdBursts::15             6478                       # Per bank write bursts
system.mem_ctrls.perBankWrBursts::0              2992                       # Per bank write bursts
system.mem_ctrls.perBankWrBursts::1              2700                       # Per bank write bursts
system.mem_ctrls.perBankWrBursts::2              3068                       # Per bank write bursts
system.mem_ctrls.perBankWrBursts::3              2658                       # Per bank write bursts
system.mem_ctrls.perBankWrBursts::4              2651                       # Per bank write bursts
system.mem_ctrls.perBankWrBursts::5              2698                       # Per bank write bursts
system.mem_ctrls.perBankWrBursts::6              2846                       # Per bank write bursts
system.mem_ctrls.perBankWrBursts::7              2637                       # Per bank write bursts
system.mem_ctrls.perBankWrBursts::8              2713                       # Per bank write bursts
system.mem_ctrls.perBankWrBursts::9              2731                       # Per bank write bursts
system.mem_ctrls.perBankWrBursts::10             2792                       # Per bank write bursts
system.mem_ctrls.perBankWrBursts::11             2771                       # Per bank write bursts
system.mem_ctrls.perBankWrBursts::12             3675                       # Per bank write bursts
system.mem_ctrls.perBankWrBursts::13             2878                       # Per bank write bursts
system.mem_ctrls.perBankWrBursts::14             3558                       # Per bank write bursts
system.mem_ctrls.perBankWrBursts::15             2763                       # Per bank write bursts
system.mem_ctrls.numRdRetry                         0                       # Number of times read queue was full causing retry
system.mem_ctrls.numWrRetry                         0                       # Number of times write queue was full causing retry
system.mem_ctrls.totGap                  526624156500                       # Total gap between requests
system.mem_ctrls.readPktSize::0                     0                       # Read request sizes (log2)
system.mem_ctrls.readPktSize::1                     0                       # Read request sizes (log2)
system.mem_ctrls.readPktSize::2                     0                       # Read request sizes (log2)
system.mem_ctrls.readPktSize::3                     0                       # Read request sizes (log2)
system.mem_ctrls.readPktSize::4                     0                       # Read request sizes (log2)
system.mem_ctrls.readPktSize::5                     0                       # Read request sizes (log2)
system.mem_ctrls.readPktSize::6                108929                       # Read request sizes (log2)
system.mem_ctrls.writePktSize::0                    0                       # Write request sizes (log2)
system.mem_ctrls.writePktSize::1                    0                       # Write request sizes (log2)
system.mem_ctrls.writePktSize::2                    0                       # Write request sizes (log2)
system.mem_ctrls.writePktSize::3                    0                       # Write request sizes (log2)
system.mem_ctrls.writePktSize::4                    0                       # Write request sizes (log2)
system.mem_ctrls.writePktSize::5                    0                       # Write request sizes (log2)
system.mem_ctrls.writePktSize::6                46151                       # Write request sizes (log2)
system.mem_ctrls.rdQLenPdf::0                   91783                       # What read queue length does an incoming req see
system.mem_ctrls.rdQLenPdf::1                   16703                       # What read queue length does an incoming req see
system.mem_ctrls.rdQLenPdf::2                       0                       # What read queue length does an incoming req see
system.mem_ctrls.rdQLenPdf::3                       0                       # What read queue length does an incoming req see
system.mem_ctrls.rdQLenPdf::4                       0                       # What read queue length does an incoming req see
system.mem_ctrls.rdQLenPdf::5                       0                       # What read queue length does an incoming req see
system.mem_ctrls.rdQLenPdf::6                       0                       # What read queue length does an incoming req see
system.mem_ctrls.rdQLenPdf::7                       0                       # What read queue length does an incoming req see
system.mem_ctrls.rdQLenPdf::8                       0                       # What read queue length does an incoming req see
system.mem_ctrls.rdQLenPdf::9                       0                       # What read queue length does an incoming req see
system.mem_ctrls.rdQLenPdf::10                      0                       # What read queue length does an incoming req see
system.mem_ctrls.rdQLenPdf::11                      0                       # What read queue length does an incoming req see
system.mem_ctrls.rdQLenPdf::12                      0                       # What read queue length does an incoming req see
system.mem_ctrls.rdQLenPdf::13                      0                       # What read queue length does an incoming req see
system.mem_ctrls.rdQLenPdf::14                      0                       # What read queue length does an incoming req see
system.mem_ctrls.rdQLenPdf::15                      0                       # What read queue length does an incoming req see
system.mem_ctrls.rdQLenPdf::16                      0                       # What read queue length does an incoming req see
system.mem_ctrls.rdQLenPdf::17                      0                       # What read queue length does an incoming req see
system.mem_ctrls.rdQLenPdf::18                      0                       # What read queue length does an incoming req see
system.mem_ctrls.rdQLenPdf::19                      0                       # What read queue length does an incoming req see
system.mem_ctrls.rdQLenPdf::20                      0                       # What read queue length does an incoming req see
system.mem_ctrls.rdQLenPdf::21                      0                       # What read queue length does an incoming req see
system.mem_ctrls.rdQLenPdf::22                      0                       # What read queue length does an incoming req see
system.mem_ctrls.rdQLenPdf::23                      0                       # What read queue length does an incoming req see
system.mem_ctrls.rdQLenPdf::24                      0                       # What read queue length does an incoming req see
system.mem_ctrls.rdQLenPdf::25                      0                       # What read queue length does an incoming req see
system.mem_ctrls.rdQLenPdf::26                      0                       # What read queue length does an incoming req see
system.mem_ctrls.rdQLenPdf::27                      0                       # What read queue length does an incoming req see
system.mem_ctrls.rdQLenPdf::28                      0                       # What read queue length does an incoming req see
system.mem_ctrls.rdQLenPdf::29                      0                       # What read queue length does an incoming req see
system.mem_ctrls.rdQLenPdf::30                      0                       # What read queue length does an incoming req see
system.mem_ctrls.rdQLenPdf::31                      0                       # What read queue length does an incoming req see
system.mem_ctrls.wrQLenPdf::0                       1                       # What write queue length does an incoming req see
system.mem_ctrls.wrQLenPdf::1                       1                       # What write queue length does an incoming req see
system.mem_ctrls.wrQLenPdf::2                       1                       # What write queue length does an incoming req see
system.mem_ctrls.wrQLenPdf::3                       1                       # What write queue length does an incoming req see
system.mem_ctrls.wrQLenPdf::4                       1                       # What write queue length does an incoming req see
system.mem_ctrls.wrQLenPdf::5                       1                       # What write queue length does an incoming req see
system.mem_ctrls.wrQLenPdf::6                       1                       # What write queue length does an incoming req see
system.mem_ctrls.wrQLenPdf::7                       1                       # What write queue length does an incoming req see
system.mem_ctrls.wrQLenPdf::8                       1                       # What write queue length does an incoming req see
system.mem_ctrls.wrQLenPdf::9                       1                       # What write queue length does an incoming req see
system.mem_ctrls.wrQLenPdf::10                      1                       # What write queue length does an incoming req see
system.mem_ctrls.wrQLenPdf::11                      1                       # What write queue length does an incoming req see
system.mem_ctrls.wrQLenPdf::12                      1                       # What write queue length does an incoming req see
system.mem_ctrls.wrQLenPdf::13                      1                       # What write queue length does an incoming req see
system.mem_ctrls.wrQLenPdf::14                      1                       # What write queue length does an incoming req see
system.mem_ctrls.wrQLenPdf::15                    825                       # What write queue length does an incoming req see
system.mem_ctrls.wrQLenPdf::16                    838                       # What write queue length does an incoming req see
system.mem_ctrls.wrQLenPdf::17                   1738                       # What write queue length does an incoming req see
system.mem_ctrls.wrQLenPdf::18                   2812                       # What write queue length does an incoming req see
system.mem_ctrls.wrQLenPdf::19                   2832                       # What write queue length does an incoming req see
system.mem_ctrls.wrQLenPdf::20                   2851                       # What write queue length does an incoming req see
system.mem_ctrls.wrQLenPdf::21                   2851                       # What write queue length does an incoming req see
system.mem_ctrls.wrQLenPdf::22                   2858                       # What write queue length does an incoming req see
system.mem_ctrls.wrQLenPdf::23                   2847                       # What write queue length does an incoming req see
system.mem_ctrls.wrQLenPdf::24                   2834                       # What write queue length does an incoming req see
system.mem_ctrls.wrQLenPdf::25                   2840                       # What write queue length does an incoming req see
system.mem_ctrls.wrQLenPdf::26                   2835                       # What write queue length does an incoming req see
system.mem_ctrls.wrQLenPdf::27                   2843                       # What write queue length does an incoming req see
system.mem_ctrls.wrQLenPdf::28                   2840                       # What write queue length does an incoming req see
system.mem_ctrls.wrQLenPdf::29                   2864                       # What write queue length does an incoming req see
system.mem_ctrls.wrQLenPdf::30                   2944                       # What write queue length does an incoming req see
system.mem_ctrls.wrQLenPdf::31                   2835                       # What write queue length does an incoming req see
system.mem_ctrls.wrQLenPdf::32                   2842                       # What write queue length does an incoming req see
system.mem_ctrls.wrQLenPdf::33                      7                       # What write queue length does an incoming req see
system.mem_ctrls.wrQLenPdf::34                      0                       # What write queue length does an incoming req see
system.mem_ctrls.wrQLenPdf::35                      0                       # What write queue length does an incoming req see
system.mem_ctrls.wrQLenPdf::36                      0                       # What write queue length does an incoming req see
system.mem_ctrls.wrQLenPdf::37                      0                       # What write queue length does an incoming req see
system.mem_ctrls.wrQLenPdf::38                      0                       # What write queue length does an incoming req see
system.mem_ctrls.wrQLenPdf::39                      0                       # What write queue length does an incoming req see
system.mem_ctrls.wrQLenPdf::40                      0                       # What write queue length does an incoming req see
system.mem_ctrls.wrQLenPdf::41                      0                       # What write queue length does an incoming req see
system.mem_ctrls.wrQLenPdf::42                      0                       # What write queue length does an incoming req see
system.mem_ctrls.wrQLenPdf::43                      0                       # What write queue length does an incoming req see
system.mem_ctrls.wrQLenPdf::44                      0                       # What write queue length does an incoming req see
system.mem_ctrls.wrQLenPdf::45                      0                       # What write queue length does an incoming req see
system.mem_ctrls.wrQLenPdf::46                      0                       # What write queue length does an incoming req see
system.mem_ctrls.wrQLenPdf::47                      0                       # What write queue length does an incoming req see
system.mem_ctrls.wrQLenPdf::48                      0                       # What write queue length does an incoming req see
system.mem_ctrls.wrQLenPdf::49                      0                       # What write queue length does an incoming req see
system.mem_ctrls.wrQLenPdf::50                      0                       # What write queue length does an incoming req see
system.mem_ctrls.wrQLenPdf::51                      0                       # What write queue length does an incoming req see
system.mem_ctrls.wrQLenPdf::52                      0                       # What write queue length does an incoming req see
system.mem_ctrls.wrQLenPdf::53                      0                       # What write queue length does an incoming req see
system.mem_ctrls.wrQLenPdf::54                      0                       # What write queue length does an incoming req see
system.mem_ctrls.wrQLenPdf::55                      0                       # What write queue length does an incoming req see
system.mem_ctrls.wrQLenPdf::56                      0                       # What write queue length does an incoming req see
system.mem_ctrls.wrQLenPdf::57                      0                       # What write queue length does an incoming req see
system.mem_ctrls.wrQLenPdf::58                      0                       # What write queue length does an incoming req see
system.mem_ctrls.wrQLenPdf::59                      0                       # What write queue length does an incoming req see
system.mem_ctrls.wrQLenPdf::60                      0                       # What write queue length does an incoming req see
system.mem_ctrls.wrQLenPdf::61                      0                       # What write queue length does an incoming req see
system.mem_ctrls.wrQLenPdf::62                      0                       # What write queue length does an incoming req see
system.mem_ctrls.wrQLenPdf::63                      0                       # What write queue length does an incoming req see
system.mem_ctrls.bytesPerActivate::samples        86430                       # Bytes accessed per row activation
system.mem_ctrls.bytesPerActivate::mean    114.478028                       # Bytes accessed per row activation
system.mem_ctrls.bytesPerActivate::gmean    85.564713                       # Bytes accessed per row activation
system.mem_ctrls.bytesPerActivate::stdev   133.195519                       # Bytes accessed per row activation
system.mem_ctrls.bytesPerActivate::0-127        68899     79.72%     79.72% # Bytes accessed per row activation
system.mem_ctrls.bytesPerActivate::128-255         6081      7.04%     86.75% # Bytes accessed per row activation
system.mem_ctrls.bytesPerActivate::256-383         7094      8.21%     94.96% # Bytes accessed per row activation
system.mem_ctrls.bytesPerActivate::384-511         2169      2.51%     97.47% # Bytes accessed per row activation
system.mem_ctrls.bytesPerActivate::512-639          799      0.92%     98.39% # Bytes accessed per row activation
system.mem_ctrls.bytesPerActivate::640-767          418      0.48%     98.88% # Bytes accessed per row activation
system.mem_ctrls.bytesPerActivate::768-895          306      0.35%     99.23% # Bytes accessed per row activation
system.mem_ctrls.bytesPerActivate::896-1023          225      0.26%     99.49% # Bytes accessed per row activation
system.mem_ctrls.bytesPerActivate::1024-1151          439      0.51%    100.00% # Bytes accessed per row activation
system.mem_ctrls.bytesPerActivate::total        86430                       # Bytes accessed per row activation
system.mem_ctrls.rdPerTurnAround::samples         2777                       # Reads before turning the bus around for writes
system.mem_ctrls.rdPerTurnAround::mean      39.064818                       # Reads before turning the bus around for writes
system.mem_ctrls.rdPerTurnAround::gmean     21.416826                       # Reads before turning the bus around for writes
system.mem_ctrls.rdPerTurnAround::stdev    547.459977                       # Reads before turning the bus around for writes
system.mem_ctrls.rdPerTurnAround::0-1023         2776     99.96%     99.96% # Reads before turning the bus around for writes
system.mem_ctrls.rdPerTurnAround::28672-29695            1      0.04%    100.00% # Reads before turning the bus around for writes
system.mem_ctrls.rdPerTurnAround::total          2777                       # Reads before turning the bus around for writes
system.mem_ctrls.wrPerTurnAround::samples         2777                       # Writes before turning the bus around for reads
system.mem_ctrls.wrPerTurnAround::mean      16.611811                       # Writes before turning the bus around for reads
system.mem_ctrls.wrPerTurnAround::gmean     16.586462                       # Writes before turning the bus around for reads
system.mem_ctrls.wrPerTurnAround::stdev      0.933204                       # Writes before turning the bus around for reads
system.mem_ctrls.wrPerTurnAround::16             1930     69.50%     69.50% # Writes before turning the bus around for reads
system.mem_ctrls.wrPerTurnAround::17               16      0.58%     70.08% # Writes before turning the bus around for reads
system.mem_ctrls.wrPerTurnAround::18              815     29.35%     99.42% # Writes before turning the bus around for reads
system.mem_ctrls.wrPerTurnAround::19               12      0.43%     99.86% # Writes before turning the bus around for reads
system.mem_ctrls.wrPerTurnAround::20                3      0.11%     99.96% # Writes before turning the bus around for reads
system.mem_ctrls.wrPerTurnAround::21                1      0.04%    100.00% # Writes before turning the bus around for reads
system.mem_ctrls.wrPerTurnAround::total          2777                       # Writes before turning the bus around for reads
system.mem_ctrls.totQLat                   9734438250                       # Total ticks spent queuing
system.mem_ctrls.totMemAccLat             11768550750                       # Total ticks spent from burst creation until serviced by the DRAM
system.mem_ctrls.totBusLat                  542430000                       # Total ticks spent in databus transfers
system.mem_ctrls.avgQLat                     89729.90                       # Average queueing delay per DRAM burst
system.mem_ctrls.avgBusLat                    5000.00                       # Average bus latency per DRAM burst
system.mem_ctrls.avgMemAccLat               108479.90                       # Average memory access latency per DRAM burst
system.mem_ctrls.avgRdBW                        13.18                       # Average DRAM read bandwidth in MiByte/s
system.mem_ctrls.avgWrBW                         5.61                       # Average achieved write bandwidth in MiByte/s
system.mem_ctrls.avgRdBWSys                     13.24                       # Average system read bandwidth in MiByte/s
system.mem_ctrls.avgWrBWSys                      5.61                       # Average system write bandwidth in MiByte/s
system.mem_ctrls.peakBW                      12800.00                       # Theoretical peak bandwidth in MiByte/s
system.mem_ctrls.busUtil                         0.15                       # Data bus utilization in percentage
system.mem_ctrls.busUtilRead                     0.10                       # Data bus utilization in percentage for reads
system.mem_ctrls.busUtilWrite                    0.04                       # Data bus utilization in percentage for writes
system.mem_ctrls.avgRdQLen                       1.00                       # Average read queue length when enqueuing
system.mem_ctrls.avgWrQLen                      14.08                       # Average write queue length when enqueuing
system.mem_ctrls.readRowHits                    44223                       # Number of row buffer hits during reads
system.mem_ctrls.writeRowHits                   23954                       # Number of row buffer hits during writes
system.mem_ctrls.readRowHitRate                 40.76                       # Row buffer hit rate for reads
system.mem_ctrls.writeRowHitRate                51.90                       # Row buffer hit rate for writes
system.mem_ctrls.avgGap                    3395822.52                       # Average gap between requests
system.mem_ctrls.pageHitRate                    44.09                       # Row buffer hit rate, read and write combined
system.mem_ctrls_0.actEnergy                302086260                       # Energy for activate commands per rank (pJ)
system.mem_ctrls_0.preEnergy                160543680                       # Energy for precharge commands per rank (pJ)
system.mem_ctrls_0.readEnergy               382711140                       # Energy for read commands per rank (pJ)
system.mem_ctrls_0.writeEnergy              116145000                       # Energy for write commands per rank (pJ)
system.mem_ctrls_0.refreshEnergy         16324838400.000004                       # Energy for refresh commands per rank (pJ)
system.mem_ctrls_0.actBackEnergy           4458646020                       # Energy for active background per rank (pJ)
system.mem_ctrls_0.preBackEnergy            966917280                       # Energy for precharge background per rank (pJ)
system.mem_ctrls_0.actPowerDownEnergy     35899261770                       # Energy for active power-down per rank (pJ)
system.mem_ctrls_0.prePowerDownEnergy     24979044000                       # Energy for precharge power-down per rank (pJ)
system.mem_ctrls_0.selfRefreshEnergy      92798966895                       # Energy for self refresh per rank (pJ)
system.mem_ctrls_0.totalEnergy           176399236305                       # Total energy per rank (pJ)
system.mem_ctrls_0.averagePower            334.962282                       # Core power per rank (mW)
system.mem_ctrls_0.totalIdleTime         514306208000                       # Total Idle time Per DRAM Rank
system.mem_ctrls_0.memoryStateTime::IDLE   1948275000                       # Time in different power states
system.mem_ctrls_0.memoryStateTime::REF    6948302000                       # Time in different power states
system.mem_ctrls_0.memoryStateTime::SREF 370529972750                       # Time in different power states
system.mem_ctrls_0.memoryStateTime::PRE_PDN  65049361250                       # Time in different power states
system.mem_ctrls_0.memoryStateTime::ACT    3421342000                       # Time in different power states
system.mem_ctrls_0.memoryStateTime::ACT_PDN  78726921500                       # Time in different power states
system.mem_ctrls_1.actEnergy                315095340                       # Energy for activate commands per rank (pJ)
system.mem_ctrls_1.preEnergy                167458170                       # Energy for precharge commands per rank (pJ)
system.mem_ctrls_1.readEnergy               391878900                       # Energy for read commands per rank (pJ)
system.mem_ctrls_1.writeEnergy              124658820                       # Energy for write commands per rank (pJ)
system.mem_ctrls_1.refreshEnergy         16617407040.000004                       # Energy for refresh commands per rank (pJ)
system.mem_ctrls_1.actBackEnergy           4426962570                       # Energy for active background per rank (pJ)
system.mem_ctrls_1.preBackEnergy            985697280                       # Energy for precharge background per rank (pJ)
system.mem_ctrls_1.actPowerDownEnergy     36468475740                       # Energy for active power-down per rank (pJ)
system.mem_ctrls_1.prePowerDownEnergy     25233448800                       # Energy for precharge power-down per rank (pJ)
system.mem_ctrls_1.selfRefreshEnergy      92483433405                       # Energy for self refresh per rank (pJ)
system.mem_ctrls_1.totalEnergy           177224225505                       # Total energy per rank (pJ)
system.mem_ctrls_1.averagePower            336.528845                       # Core power per rank (mW)
system.mem_ctrls_1.totalIdleTime         514327469750                       # Total Idle time Per DRAM Rank
system.mem_ctrls_1.memoryStateTime::IDLE   1989697750                       # Time in different power states
system.mem_ctrls_1.memoryStateTime::REF    7073466000                       # Time in different power states
system.mem_ctrls_1.memoryStateTime::SREF 368640653000                       # Time in different power states
system.mem_ctrls_1.memoryStateTime::PRE_PDN  65712142500                       # Time in different power states
system.mem_ctrls_1.memoryStateTime::ACT    3233370250                       # Time in different power states
system.mem_ctrls_1.memoryStateTime::ACT_PDN  79974845000                       # Time in different power states
system.pwrStateResidencyTicks::UNDEFINED 526624174500                       # Cumulative time (in ticks) in various power states
system.cpu_voltage_domain.voltage                   1                       # Voltage in Volts
system.cpu_clk_domain.clock                       500                       # Clock period in ticks
system.cpu0.dstage2_mmu.stage2_tlb.walker.pwrStateResidencyTicks::UNDEFINED 526624174500                       # Cumulative time (in ticks) in various power states
system.cpu0.dstage2_mmu.stage2_tlb.walker.walks            0                       # Table walker walks requested
system.cpu0.dstage2_mmu.stage2_tlb.walker.walkRequestOrigin_Requested::Data            0                       # Table walker requests started/completed, data/inst
system.cpu0.dstage2_mmu.stage2_tlb.walker.walkRequestOrigin_Requested::Inst            0                       # Table walker requests started/completed, data/inst
system.cpu0.dstage2_mmu.stage2_tlb.walker.walkRequestOrigin_Requested::total            0                       # Table walker requests started/completed, data/inst
system.cpu0.dstage2_mmu.stage2_tlb.walker.walkRequestOrigin_Completed::Data            0                       # Table walker requests started/completed, data/inst
system.cpu0.dstage2_mmu.stage2_tlb.walker.walkRequestOrigin_Completed::Inst            0                       # Table walker requests started/completed, data/inst
system.cpu0.dstage2_mmu.stage2_tlb.walker.walkRequestOrigin_Completed::total            0                       # Table walker requests started/completed, data/inst
system.cpu0.dstage2_mmu.stage2_tlb.walker.walkRequestOrigin::total            0                       # Table walker requests started/completed, data/inst
system.cpu0.dstage2_mmu.stage2_tlb.inst_hits            0                       # ITB inst hits
system.cpu0.dstage2_mmu.stage2_tlb.inst_misses            0                       # ITB inst misses
system.cpu0.dstage2_mmu.stage2_tlb.read_hits            0                       # DTB read hits
system.cpu0.dstage2_mmu.stage2_tlb.read_misses            0                       # DTB read misses
system.cpu0.dstage2_mmu.stage2_tlb.write_hits            0                       # DTB write hits
system.cpu0.dstage2_mmu.stage2_tlb.write_misses            0                       # DTB write misses
system.cpu0.dstage2_mmu.stage2_tlb.flush_tlb            0                       # Number of times complete TLB was flushed
system.cpu0.dstage2_mmu.stage2_tlb.flush_tlb_mva            0                       # Number of times TLB was flushed by MVA
system.cpu0.dstage2_mmu.stage2_tlb.flush_tlb_mva_asid            0                       # Number of times TLB was flushed by MVA & ASID
system.cpu0.dstage2_mmu.stage2_tlb.flush_tlb_asid            0                       # Number of times TLB was flushed by ASID
system.cpu0.dstage2_mmu.stage2_tlb.flush_entries            0                       # Number of entries that have been flushed from TLB
system.cpu0.dstage2_mmu.stage2_tlb.align_faults            0                       # Number of TLB faults due to alignment restrictions
system.cpu0.dstage2_mmu.stage2_tlb.prefetch_faults            0                       # Number of TLB faults due to prefetch
system.cpu0.dstage2_mmu.stage2_tlb.domain_faults            0                       # Number of TLB faults due to domain restrictions
system.cpu0.dstage2_mmu.stage2_tlb.perms_faults            0                       # Number of TLB faults due to permissions restrictions
system.cpu0.dstage2_mmu.stage2_tlb.read_accesses            0                       # DTB read accesses
system.cpu0.dstage2_mmu.stage2_tlb.write_accesses            0                       # DTB write accesses
system.cpu0.dstage2_mmu.stage2_tlb.inst_accesses            0                       # ITB inst accesses
system.cpu0.dstage2_mmu.stage2_tlb.hits             0                       # DTB hits
system.cpu0.dstage2_mmu.stage2_tlb.misses            0                       # DTB misses
system.cpu0.dstage2_mmu.stage2_tlb.accesses            0                       # DTB accesses
system.cpu0.dtb.walker.pwrStateResidencyTicks::UNDEFINED 526624174500                       # Cumulative time (in ticks) in various power states
system.cpu0.dtb.walker.walks                        0                       # Table walker walks requested
system.cpu0.dtb.walker.walkRequestOrigin_Requested::Data            0                       # Table walker requests started/completed, data/inst
system.cpu0.dtb.walker.walkRequestOrigin_Requested::Inst            0                       # Table walker requests started/completed, data/inst
system.cpu0.dtb.walker.walkRequestOrigin_Requested::total            0                       # Table walker requests started/completed, data/inst
system.cpu0.dtb.walker.walkRequestOrigin_Completed::Data            0                       # Table walker requests started/completed, data/inst
system.cpu0.dtb.walker.walkRequestOrigin_Completed::Inst            0                       # Table walker requests started/completed, data/inst
system.cpu0.dtb.walker.walkRequestOrigin_Completed::total            0                       # Table walker requests started/completed, data/inst
system.cpu0.dtb.walker.walkRequestOrigin::total            0                       # Table walker requests started/completed, data/inst
system.cpu0.dtb.inst_hits                           0                       # ITB inst hits
system.cpu0.dtb.inst_misses                         0                       # ITB inst misses
system.cpu0.dtb.read_hits                           0                       # DTB read hits
system.cpu0.dtb.read_misses                         0                       # DTB read misses
system.cpu0.dtb.write_hits                          0                       # DTB write hits
system.cpu0.dtb.write_misses                        0                       # DTB write misses
system.cpu0.dtb.flush_tlb                           0                       # Number of times complete TLB was flushed
system.cpu0.dtb.flush_tlb_mva                       0                       # Number of times TLB was flushed by MVA
system.cpu0.dtb.flush_tlb_mva_asid                  0                       # Number of times TLB was flushed by MVA & ASID
system.cpu0.dtb.flush_tlb_asid                      0                       # Number of times TLB was flushed by ASID
system.cpu0.dtb.flush_entries                       0                       # Number of entries that have been flushed from TLB
system.cpu0.dtb.align_faults                        0                       # Number of TLB faults due to alignment restrictions
system.cpu0.dtb.prefetch_faults                     0                       # Number of TLB faults due to prefetch
system.cpu0.dtb.domain_faults                       0                       # Number of TLB faults due to domain restrictions
system.cpu0.dtb.perms_faults                        0                       # Number of TLB faults due to permissions restrictions
system.cpu0.dtb.read_accesses                       0                       # DTB read accesses
system.cpu0.dtb.write_accesses                      0                       # DTB write accesses
system.cpu0.dtb.inst_accesses                       0                       # ITB inst accesses
system.cpu0.dtb.hits                                0                       # DTB hits
system.cpu0.dtb.misses                              0                       # DTB misses
system.cpu0.dtb.accesses                            0                       # DTB accesses
system.cpu0.istage2_mmu.stage2_tlb.walker.pwrStateResidencyTicks::UNDEFINED 526624174500                       # Cumulative time (in ticks) in various power states
system.cpu0.istage2_mmu.stage2_tlb.walker.walks            0                       # Table walker walks requested
system.cpu0.istage2_mmu.stage2_tlb.walker.walkRequestOrigin_Requested::Data            0                       # Table walker requests started/completed, data/inst
system.cpu0.istage2_mmu.stage2_tlb.walker.walkRequestOrigin_Requested::Inst            0                       # Table walker requests started/completed, data/inst
system.cpu0.istage2_mmu.stage2_tlb.walker.walkRequestOrigin_Requested::total            0                       # Table walker requests started/completed, data/inst
system.cpu0.istage2_mmu.stage2_tlb.walker.walkRequestOrigin_Completed::Data            0                       # Table walker requests started/completed, data/inst
system.cpu0.istage2_mmu.stage2_tlb.walker.walkRequestOrigin_Completed::Inst            0                       # Table walker requests started/completed, data/inst
system.cpu0.istage2_mmu.stage2_tlb.walker.walkRequestOrigin_Completed::total            0                       # Table walker requests started/completed, data/inst
system.cpu0.istage2_mmu.stage2_tlb.walker.walkRequestOrigin::total            0                       # Table walker requests started/completed, data/inst
system.cpu0.istage2_mmu.stage2_tlb.inst_hits            0                       # ITB inst hits
system.cpu0.istage2_mmu.stage2_tlb.inst_misses            0                       # ITB inst misses
system.cpu0.istage2_mmu.stage2_tlb.read_hits            0                       # DTB read hits
system.cpu0.istage2_mmu.stage2_tlb.read_misses            0                       # DTB read misses
system.cpu0.istage2_mmu.stage2_tlb.write_hits            0                       # DTB write hits
system.cpu0.istage2_mmu.stage2_tlb.write_misses            0                       # DTB write misses
system.cpu0.istage2_mmu.stage2_tlb.flush_tlb            0                       # Number of times complete TLB was flushed
system.cpu0.istage2_mmu.stage2_tlb.flush_tlb_mva            0                       # Number of times TLB was flushed by MVA
system.cpu0.istage2_mmu.stage2_tlb.flush_tlb_mva_asid            0                       # Number of times TLB was flushed by MVA & ASID
system.cpu0.istage2_mmu.stage2_tlb.flush_tlb_asid            0                       # Number of times TLB was flushed by ASID
system.cpu0.istage2_mmu.stage2_tlb.flush_entries            0                       # Number of entries that have been flushed from TLB
system.cpu0.istage2_mmu.stage2_tlb.align_faults            0                       # Number of TLB faults due to alignment restrictions
system.cpu0.istage2_mmu.stage2_tlb.prefetch_faults            0                       # Number of TLB faults due to prefetch
system.cpu0.istage2_mmu.stage2_tlb.domain_faults            0                       # Number of TLB faults due to domain restrictions
system.cpu0.istage2_mmu.stage2_tlb.perms_faults            0                       # Number of TLB faults due to permissions restrictions
system.cpu0.istage2_mmu.stage2_tlb.read_accesses            0                       # DTB read accesses
system.cpu0.istage2_mmu.stage2_tlb.write_accesses            0                       # DTB write accesses
system.cpu0.istage2_mmu.stage2_tlb.inst_accesses            0                       # ITB inst accesses
system.cpu0.istage2_mmu.stage2_tlb.hits             0                       # DTB hits
system.cpu0.istage2_mmu.stage2_tlb.misses            0                       # DTB misses
system.cpu0.istage2_mmu.stage2_tlb.accesses            0                       # DTB accesses
system.cpu0.itb.walker.pwrStateResidencyTicks::UNDEFINED 526624174500                       # Cumulative time (in ticks) in various power states
system.cpu0.itb.walker.walks                        0                       # Table walker walks requested
system.cpu0.itb.walker.walkRequestOrigin_Requested::Data            0                       # Table walker requests started/completed, data/inst
system.cpu0.itb.walker.walkRequestOrigin_Requested::Inst            0                       # Table walker requests started/completed, data/inst
system.cpu0.itb.walker.walkRequestOrigin_Requested::total            0                       # Table walker requests started/completed, data/inst
system.cpu0.itb.walker.walkRequestOrigin_Completed::Data            0                       # Table walker requests started/completed, data/inst
system.cpu0.itb.walker.walkRequestOrigin_Completed::Inst            0                       # Table walker requests started/completed, data/inst
system.cpu0.itb.walker.walkRequestOrigin_Completed::total            0                       # Table walker requests started/completed, data/inst
system.cpu0.itb.walker.walkRequestOrigin::total            0                       # Table walker requests started/completed, data/inst
system.cpu0.itb.inst_hits                           0                       # ITB inst hits
system.cpu0.itb.inst_misses                         0                       # ITB inst misses
system.cpu0.itb.read_hits                           0                       # DTB read hits
system.cpu0.itb.read_misses                         0                       # DTB read misses
system.cpu0.itb.write_hits                          0                       # DTB write hits
system.cpu0.itb.write_misses                        0                       # DTB write misses
system.cpu0.itb.flush_tlb                           0                       # Number of times complete TLB was flushed
system.cpu0.itb.flush_tlb_mva                       0                       # Number of times TLB was flushed by MVA
system.cpu0.itb.flush_tlb_mva_asid                  0                       # Number of times TLB was flushed by MVA & ASID
system.cpu0.itb.flush_tlb_asid                      0                       # Number of times TLB was flushed by ASID
system.cpu0.itb.flush_entries                       0                       # Number of entries that have been flushed from TLB
system.cpu0.itb.align_faults                        0                       # Number of TLB faults due to alignment restrictions
system.cpu0.itb.prefetch_faults                     0                       # Number of TLB faults due to prefetch
system.cpu0.itb.domain_faults                       0                       # Number of TLB faults due to domain restrictions
system.cpu0.itb.perms_faults                        0                       # Number of TLB faults due to permissions restrictions
system.cpu0.itb.read_accesses                       0                       # DTB read accesses
system.cpu0.itb.write_accesses                      0                       # DTB write accesses
system.cpu0.itb.inst_accesses                       0                       # ITB inst accesses
system.cpu0.itb.hits                                0                       # DTB hits
system.cpu0.itb.misses                              0                       # DTB misses
system.cpu0.itb.accesses                            0                       # DTB accesses
system.cpu0.workload.numSyscalls                   46                       # Number of system calls
system.cpu0.pwrStateResidencyTicks::ON   526624174500                       # Cumulative time (in ticks) in various power states
system.cpu0.numCycles                      1053248349                       # number of cpu cycles simulated
system.cpu0.numWorkItemsStarted                     0                       # number of work items this cpu started
system.cpu0.numWorkItemsCompleted                   0                       # number of work items this cpu completed
system.cpu0.committedInsts                  444695927                       # Number of instructions committed
system.cpu0.committedOps                    505526237                       # Number of ops (including micro ops) committed
system.cpu0.num_int_alu_accesses            460623966                       # Number of integer alu accesses
system.cpu0.num_fp_alu_accesses                    16                       # Number of float alu accesses
system.cpu0.num_vec_alu_accesses                    0                       # Number of vector alu accesses
system.cpu0.num_func_calls                   25002143                       # number of times a function call or return occured
system.cpu0.num_conditional_control_insts     58031565                       # number of instructions that are conditional controls
system.cpu0.num_int_insts                   460623966                       # number of integer instructions
system.cpu0.num_fp_insts                           16                       # number of float instructions
system.cpu0.num_vec_insts                           0                       # number of vector instructions
system.cpu0.num_int_register_reads          700262331                       # number of times the integer registers were read
system.cpu0.num_int_register_writes         352890965                       # number of times the integer registers were written
system.cpu0.num_fp_register_reads                  16                       # number of times the floating registers were read
system.cpu0.num_fp_register_writes                  0                       # number of times the floating registers were written
system.cpu0.num_vec_register_reads                  0                       # number of times the vector registers were read
system.cpu0.num_vec_register_writes                 0                       # number of times the vector registers were written
system.cpu0.num_cc_register_reads          1631037805                       # number of times the CC registers were read
system.cpu0.num_cc_register_writes          319421688                       # number of times the CC registers were written
system.cpu0.num_mem_refs                     74431795                       # number of memory refs
system.cpu0.num_load_insts                   38090724                       # Number of load instructions
system.cpu0.num_store_insts                  36341071                       # Number of store instructions
system.cpu0.num_idle_cycles                         0                       # Number of idle cycles
system.cpu0.num_busy_cycles                1053248349                       # Number of busy cycles
system.cpu0.not_idle_fraction                       1                       # Percentage of non-idle cycles
system.cpu0.idle_fraction                           0                       # Percentage of idle cycles
system.cpu0.Branches                         77922192                       # Number of branches fetched
system.cpu0.op_class::No_OpClass                    0      0.00%      0.00% # Class of executed instruction
system.cpu0.op_class::IntAlu                427903974     83.37%     83.37% # Class of executed instruction
system.cpu0.op_class::IntMult                10834226      2.11%     85.48% # Class of executed instruction
system.cpu0.op_class::IntDiv                        0      0.00%     85.48% # Class of executed instruction
system.cpu0.op_class::FloatAdd                      0      0.00%     85.48% # Class of executed instruction
system.cpu0.op_class::FloatCmp                      0      0.00%     85.48% # Class of executed instruction
system.cpu0.op_class::FloatCvt                      0      0.00%     85.48% # Class of executed instruction
system.cpu0.op_class::FloatMult                     0      0.00%     85.48% # Class of executed instruction
system.cpu0.op_class::FloatMultAcc                  0      0.00%     85.48% # Class of executed instruction
system.cpu0.op_class::FloatDiv                      0      0.00%     85.48% # Class of executed instruction
system.cpu0.op_class::FloatMisc                     0      0.00%     85.48% # Class of executed instruction
system.cpu0.op_class::FloatSqrt                     0      0.00%     85.48% # Class of executed instruction
system.cpu0.op_class::SimdAdd                       0      0.00%     85.48% # Class of executed instruction
system.cpu0.op_class::SimdAddAcc                    0      0.00%     85.48% # Class of executed instruction
system.cpu0.op_class::SimdAlu                       0      0.00%     85.48% # Class of executed instruction
system.cpu0.op_class::SimdCmp                       0      0.00%     85.48% # Class of executed instruction
system.cpu0.op_class::SimdCvt                       0      0.00%     85.48% # Class of executed instruction
system.cpu0.op_class::SimdMisc                      0      0.00%     85.48% # Class of executed instruction
system.cpu0.op_class::SimdMult                      0      0.00%     85.48% # Class of executed instruction
system.cpu0.op_class::SimdMultAcc                   0      0.00%     85.48% # Class of executed instruction
system.cpu0.op_class::SimdShift                     0      0.00%     85.48% # Class of executed instruction
system.cpu0.op_class::SimdShiftAcc                  0      0.00%     85.48% # Class of executed instruction
system.cpu0.op_class::SimdSqrt                      0      0.00%     85.48% # Class of executed instruction
system.cpu0.op_class::SimdFloatAdd                  0      0.00%     85.48% # Class of executed instruction
system.cpu0.op_class::SimdFloatAlu                  0      0.00%     85.48% # Class of executed instruction
system.cpu0.op_class::SimdFloatCmp                  0      0.00%     85.48% # Class of executed instruction
system.cpu0.op_class::SimdFloatCvt                  0      0.00%     85.48% # Class of executed instruction
system.cpu0.op_class::SimdFloatDiv                  0      0.00%     85.48% # Class of executed instruction
system.cpu0.op_class::SimdFloatMisc             65794      0.01%     85.50% # Class of executed instruction
system.cpu0.op_class::SimdFloatMult                 0      0.00%     85.50% # Class of executed instruction
system.cpu0.op_class::SimdFloatMultAcc              0      0.00%     85.50% # Class of executed instruction
system.cpu0.op_class::SimdFloatSqrt                 0      0.00%     85.50% # Class of executed instruction
system.cpu0.op_class::MemRead                38090724      7.42%     92.92% # Class of executed instruction
system.cpu0.op_class::MemWrite               36341055      7.08%    100.00% # Class of executed instruction
system.cpu0.op_class::FloatMemRead                  0      0.00%    100.00% # Class of executed instruction
system.cpu0.op_class::FloatMemWrite                16      0.00%    100.00% # Class of executed instruction
system.cpu0.op_class::IprAccess                     0      0.00%    100.00% # Class of executed instruction
system.cpu0.op_class::InstPrefetch                  0      0.00%    100.00% # Class of executed instruction
system.cpu0.op_class::total                 513235789                       # Class of executed instruction
system.cpu0.dcache.tags.pwrStateResidencyTicks::UNDEFINED 526624174500                       # Cumulative time (in ticks) in various power states
system.cpu0.dcache.tags.replacements           107789                       # number of replacements
system.cpu0.dcache.tags.tagsinuse         1022.792763                       # Cycle average of tags in use
system.cpu0.dcache.tags.total_refs           67072309                       # Total number of references to valid blocks.
system.cpu0.dcache.tags.sampled_refs           108813                       # Sample count of references to valid blocks.
system.cpu0.dcache.tags.avg_refs           616.399778                       # Average number of references to valid blocks.
system.cpu0.dcache.tags.warmup_cycle       1571580500                       # Cycle when the warmup percentage was hit.
system.cpu0.dcache.tags.occ_blocks::cpu0.data  1022.792763                       # Average occupied blocks per requestor
system.cpu0.dcache.tags.occ_percent::cpu0.data     0.998821                       # Average percentage of cache occupancy
system.cpu0.dcache.tags.occ_percent::total     0.998821                       # Average percentage of cache occupancy
system.cpu0.dcache.tags.occ_task_id_blocks::1024         1024                       # Occupied blocks per task id
system.cpu0.dcache.tags.age_task_id_blocks_1024::0           18                       # Occupied blocks per task id
system.cpu0.dcache.tags.age_task_id_blocks_1024::1          268                       # Occupied blocks per task id
system.cpu0.dcache.tags.age_task_id_blocks_1024::2          738                       # Occupied blocks per task id
system.cpu0.dcache.tags.occ_task_id_percent::1024            1                       # Percentage of cache occupancy per task id
system.cpu0.dcache.tags.tag_accesses        134471159                       # Number of tag accesses
system.cpu0.dcache.tags.data_accesses       134471159                       # Number of data accesses
system.cpu0.dcache.pwrStateResidencyTicks::UNDEFINED 526624174500                       # Cumulative time (in ticks) in various power states
system.cpu0.dcache.ReadReq_hits::cpu0.data     30829400                       # number of ReadReq hits
system.cpu0.dcache.ReadReq_hits::total       30829400                       # number of ReadReq hits
system.cpu0.dcache.WriteReq_hits::cpu0.data     36242442                       # number of WriteReq hits
system.cpu0.dcache.WriteReq_hits::total      36242442                       # number of WriteReq hits
system.cpu0.dcache.LoadLockedReq_hits::cpu0.data          306                       # number of LoadLockedReq hits
system.cpu0.dcache.LoadLockedReq_hits::total          306                       # number of LoadLockedReq hits
system.cpu0.dcache.StoreCondReq_hits::cpu0.data          141                       # number of StoreCondReq hits
system.cpu0.dcache.StoreCondReq_hits::total          141                       # number of StoreCondReq hits
system.cpu0.dcache.demand_hits::cpu0.data     67071842                       # number of demand (read+write) hits
system.cpu0.dcache.demand_hits::total        67071842                       # number of demand (read+write) hits
system.cpu0.dcache.overall_hits::cpu0.data     67071842                       # number of overall hits
system.cpu0.dcache.overall_hits::total       67071842                       # number of overall hits
system.cpu0.dcache.ReadReq_misses::cpu0.data        50537                       # number of ReadReq misses
system.cpu0.dcache.ReadReq_misses::total        50537                       # number of ReadReq misses
system.cpu0.dcache.WriteReq_misses::cpu0.data        58299                       # number of WriteReq misses
system.cpu0.dcache.WriteReq_misses::total        58299                       # number of WriteReq misses
system.cpu0.dcache.LoadLockedReq_misses::cpu0.data           17                       # number of LoadLockedReq misses
system.cpu0.dcache.LoadLockedReq_misses::total           17                       # number of LoadLockedReq misses
system.cpu0.dcache.StoreCondReq_misses::cpu0.data           14                       # number of StoreCondReq misses
system.cpu0.dcache.StoreCondReq_misses::total           14                       # number of StoreCondReq misses
system.cpu0.dcache.demand_misses::cpu0.data       108836                       # number of demand (read+write) misses
system.cpu0.dcache.demand_misses::total        108836                       # number of demand (read+write) misses
system.cpu0.dcache.overall_misses::cpu0.data       108836                       # number of overall misses
system.cpu0.dcache.overall_misses::total       108836                       # number of overall misses
system.cpu0.dcache.ReadReq_miss_latency::cpu0.data   2258480500                       # number of ReadReq miss cycles
system.cpu0.dcache.ReadReq_miss_latency::total   2258480500                       # number of ReadReq miss cycles
system.cpu0.dcache.WriteReq_miss_latency::cpu0.data  11856233500                       # number of WriteReq miss cycles
system.cpu0.dcache.WriteReq_miss_latency::total  11856233500                       # number of WriteReq miss cycles
system.cpu0.dcache.LoadLockedReq_miss_latency::cpu0.data      1539000                       # number of LoadLockedReq miss cycles
system.cpu0.dcache.LoadLockedReq_miss_latency::total      1539000                       # number of LoadLockedReq miss cycles
system.cpu0.dcache.StoreCondReq_miss_latency::cpu0.data        67000                       # number of StoreCondReq miss cycles
system.cpu0.dcache.StoreCondReq_miss_latency::total        67000                       # number of StoreCondReq miss cycles
system.cpu0.dcache.demand_miss_latency::cpu0.data  14114714000                       # number of demand (read+write) miss cycles
system.cpu0.dcache.demand_miss_latency::total  14114714000                       # number of demand (read+write) miss cycles
system.cpu0.dcache.overall_miss_latency::cpu0.data  14114714000                       # number of overall miss cycles
system.cpu0.dcache.overall_miss_latency::total  14114714000                       # number of overall miss cycles
system.cpu0.dcache.ReadReq_accesses::cpu0.data     30879937                       # number of ReadReq accesses(hits+misses)
system.cpu0.dcache.ReadReq_accesses::total     30879937                       # number of ReadReq accesses(hits+misses)
system.cpu0.dcache.WriteReq_accesses::cpu0.data     36300741                       # number of WriteReq accesses(hits+misses)
system.cpu0.dcache.WriteReq_accesses::total     36300741                       # number of WriteReq accesses(hits+misses)
system.cpu0.dcache.LoadLockedReq_accesses::cpu0.data          323                       # number of LoadLockedReq accesses(hits+misses)
system.cpu0.dcache.LoadLockedReq_accesses::total          323                       # number of LoadLockedReq accesses(hits+misses)
system.cpu0.dcache.StoreCondReq_accesses::cpu0.data          155                       # number of StoreCondReq accesses(hits+misses)
system.cpu0.dcache.StoreCondReq_accesses::total          155                       # number of StoreCondReq accesses(hits+misses)
system.cpu0.dcache.demand_accesses::cpu0.data     67180678                       # number of demand (read+write) accesses
system.cpu0.dcache.demand_accesses::total     67180678                       # number of demand (read+write) accesses
system.cpu0.dcache.overall_accesses::cpu0.data     67180678                       # number of overall (read+write) accesses
system.cpu0.dcache.overall_accesses::total     67180678                       # number of overall (read+write) accesses
system.cpu0.dcache.ReadReq_miss_rate::cpu0.data     0.001637                       # miss rate for ReadReq accesses
system.cpu0.dcache.ReadReq_miss_rate::total     0.001637                       # miss rate for ReadReq accesses
system.cpu0.dcache.WriteReq_miss_rate::cpu0.data     0.001606                       # miss rate for WriteReq accesses
system.cpu0.dcache.WriteReq_miss_rate::total     0.001606                       # miss rate for WriteReq accesses
system.cpu0.dcache.LoadLockedReq_miss_rate::cpu0.data     0.052632                       # miss rate for LoadLockedReq accesses
system.cpu0.dcache.LoadLockedReq_miss_rate::total     0.052632                       # miss rate for LoadLockedReq accesses
system.cpu0.dcache.StoreCondReq_miss_rate::cpu0.data     0.090323                       # miss rate for StoreCondReq accesses
system.cpu0.dcache.StoreCondReq_miss_rate::total     0.090323                       # miss rate for StoreCondReq accesses
system.cpu0.dcache.demand_miss_rate::cpu0.data     0.001620                       # miss rate for demand accesses
system.cpu0.dcache.demand_miss_rate::total     0.001620                       # miss rate for demand accesses
system.cpu0.dcache.overall_miss_rate::cpu0.data     0.001620                       # miss rate for overall accesses
system.cpu0.dcache.overall_miss_rate::total     0.001620                       # miss rate for overall accesses
system.cpu0.dcache.ReadReq_avg_miss_latency::cpu0.data 44689.643232                       # average ReadReq miss latency
system.cpu0.dcache.ReadReq_avg_miss_latency::total 44689.643232                       # average ReadReq miss latency
system.cpu0.dcache.WriteReq_avg_miss_latency::cpu0.data 203369.414570                       # average WriteReq miss latency
system.cpu0.dcache.WriteReq_avg_miss_latency::total 203369.414570                       # average WriteReq miss latency
system.cpu0.dcache.LoadLockedReq_avg_miss_latency::cpu0.data 90529.411765                       # average LoadLockedReq miss latency
system.cpu0.dcache.LoadLockedReq_avg_miss_latency::total 90529.411765                       # average LoadLockedReq miss latency
system.cpu0.dcache.StoreCondReq_avg_miss_latency::cpu0.data  4785.714286                       # average StoreCondReq miss latency
system.cpu0.dcache.StoreCondReq_avg_miss_latency::total  4785.714286                       # average StoreCondReq miss latency
system.cpu0.dcache.demand_avg_miss_latency::cpu0.data 129687.915763                       # average overall miss latency
system.cpu0.dcache.demand_avg_miss_latency::total 129687.915763                       # average overall miss latency
system.cpu0.dcache.overall_avg_miss_latency::cpu0.data 129687.915763                       # average overall miss latency
system.cpu0.dcache.overall_avg_miss_latency::total 129687.915763                       # average overall miss latency
system.cpu0.dcache.blocked_cycles::no_mshrs            0                       # number of cycles access was blocked
system.cpu0.dcache.blocked_cycles::no_targets            0                       # number of cycles access was blocked
system.cpu0.dcache.blocked::no_mshrs                0                       # number of cycles access was blocked
system.cpu0.dcache.blocked::no_targets              0                       # number of cycles access was blocked
system.cpu0.dcache.avg_blocked_cycles::no_mshrs          nan                       # average number of cycles each access was blocked
system.cpu0.dcache.avg_blocked_cycles::no_targets          nan                       # average number of cycles each access was blocked
system.cpu0.dcache.writebacks::writebacks        92796                       # number of writebacks
system.cpu0.dcache.writebacks::total            92796                       # number of writebacks
system.cpu0.dcache.ReadReq_mshr_misses::cpu0.data        50537                       # number of ReadReq MSHR misses
system.cpu0.dcache.ReadReq_mshr_misses::total        50537                       # number of ReadReq MSHR misses
system.cpu0.dcache.WriteReq_mshr_misses::cpu0.data        58299                       # number of WriteReq MSHR misses
system.cpu0.dcache.WriteReq_mshr_misses::total        58299                       # number of WriteReq MSHR misses
system.cpu0.dcache.LoadLockedReq_mshr_misses::cpu0.data           17                       # number of LoadLockedReq MSHR misses
system.cpu0.dcache.LoadLockedReq_mshr_misses::total           17                       # number of LoadLockedReq MSHR misses
system.cpu0.dcache.StoreCondReq_mshr_misses::cpu0.data           14                       # number of StoreCondReq MSHR misses
system.cpu0.dcache.StoreCondReq_mshr_misses::total           14                       # number of StoreCondReq MSHR misses
system.cpu0.dcache.demand_mshr_misses::cpu0.data       108836                       # number of demand (read+write) MSHR misses
system.cpu0.dcache.demand_mshr_misses::total       108836                       # number of demand (read+write) MSHR misses
system.cpu0.dcache.overall_mshr_misses::cpu0.data       108836                       # number of overall MSHR misses
system.cpu0.dcache.overall_mshr_misses::total       108836                       # number of overall MSHR misses
system.cpu0.dcache.ReadReq_mshr_miss_latency::cpu0.data   2207943500                       # number of ReadReq MSHR miss cycles
system.cpu0.dcache.ReadReq_mshr_miss_latency::total   2207943500                       # number of ReadReq MSHR miss cycles
system.cpu0.dcache.WriteReq_mshr_miss_latency::cpu0.data  11797934500                       # number of WriteReq MSHR miss cycles
system.cpu0.dcache.WriteReq_mshr_miss_latency::total  11797934500                       # number of WriteReq MSHR miss cycles
system.cpu0.dcache.LoadLockedReq_mshr_miss_latency::cpu0.data      1522000                       # number of LoadLockedReq MSHR miss cycles
system.cpu0.dcache.LoadLockedReq_mshr_miss_latency::total      1522000                       # number of LoadLockedReq MSHR miss cycles
system.cpu0.dcache.StoreCondReq_mshr_miss_latency::cpu0.data        53000                       # number of StoreCondReq MSHR miss cycles
system.cpu0.dcache.StoreCondReq_mshr_miss_latency::total        53000                       # number of StoreCondReq MSHR miss cycles
system.cpu0.dcache.demand_mshr_miss_latency::cpu0.data  14005878000                       # number of demand (read+write) MSHR miss cycles
system.cpu0.dcache.demand_mshr_miss_latency::total  14005878000                       # number of demand (read+write) MSHR miss cycles
system.cpu0.dcache.overall_mshr_miss_latency::cpu0.data  14005878000                       # number of overall MSHR miss cycles
system.cpu0.dcache.overall_mshr_miss_latency::total  14005878000                       # number of overall MSHR miss cycles
system.cpu0.dcache.ReadReq_mshr_miss_rate::cpu0.data     0.001637                       # mshr miss rate for ReadReq accesses
system.cpu0.dcache.ReadReq_mshr_miss_rate::total     0.001637                       # mshr miss rate for ReadReq accesses
system.cpu0.dcache.WriteReq_mshr_miss_rate::cpu0.data     0.001606                       # mshr miss rate for WriteReq accesses
system.cpu0.dcache.WriteReq_mshr_miss_rate::total     0.001606                       # mshr miss rate for WriteReq accesses
system.cpu0.dcache.LoadLockedReq_mshr_miss_rate::cpu0.data     0.052632                       # mshr miss rate for LoadLockedReq accesses
system.cpu0.dcache.LoadLockedReq_mshr_miss_rate::total     0.052632                       # mshr miss rate for LoadLockedReq accesses
system.cpu0.dcache.StoreCondReq_mshr_miss_rate::cpu0.data     0.090323                       # mshr miss rate for StoreCondReq accesses
system.cpu0.dcache.StoreCondReq_mshr_miss_rate::total     0.090323                       # mshr miss rate for StoreCondReq accesses
system.cpu0.dcache.demand_mshr_miss_rate::cpu0.data     0.001620                       # mshr miss rate for demand accesses
system.cpu0.dcache.demand_mshr_miss_rate::total     0.001620                       # mshr miss rate for demand accesses
system.cpu0.dcache.overall_mshr_miss_rate::cpu0.data     0.001620                       # mshr miss rate for overall accesses
system.cpu0.dcache.overall_mshr_miss_rate::total     0.001620                       # mshr miss rate for overall accesses
system.cpu0.dcache.ReadReq_avg_mshr_miss_latency::cpu0.data 43689.643232                       # average ReadReq mshr miss latency
system.cpu0.dcache.ReadReq_avg_mshr_miss_latency::total 43689.643232                       # average ReadReq mshr miss latency
system.cpu0.dcache.WriteReq_avg_mshr_miss_latency::cpu0.data 202369.414570                       # average WriteReq mshr miss latency
system.cpu0.dcache.WriteReq_avg_mshr_miss_latency::total 202369.414570                       # average WriteReq mshr miss latency
system.cpu0.dcache.LoadLockedReq_avg_mshr_miss_latency::cpu0.data 89529.411765                       # average LoadLockedReq mshr miss latency
system.cpu0.dcache.LoadLockedReq_avg_mshr_miss_latency::total 89529.411765                       # average LoadLockedReq mshr miss latency
system.cpu0.dcache.StoreCondReq_avg_mshr_miss_latency::cpu0.data  3785.714286                       # average StoreCondReq mshr miss latency
system.cpu0.dcache.StoreCondReq_avg_mshr_miss_latency::total  3785.714286                       # average StoreCondReq mshr miss latency
system.cpu0.dcache.demand_avg_mshr_miss_latency::cpu0.data 128687.915763                       # average overall mshr miss latency
system.cpu0.dcache.demand_avg_mshr_miss_latency::total 128687.915763                       # average overall mshr miss latency
system.cpu0.dcache.overall_avg_mshr_miss_latency::cpu0.data 128687.915763                       # average overall mshr miss latency
system.cpu0.dcache.overall_avg_mshr_miss_latency::total 128687.915763                       # average overall mshr miss latency
system.cpu0.icache.tags.pwrStateResidencyTicks::UNDEFINED 526624174500                       # Cumulative time (in ticks) in various power states
system.cpu0.icache.tags.replacements            66851                       # number of replacements
system.cpu0.icache.tags.tagsinuse          496.344581                       # Cycle average of tags in use
system.cpu0.icache.tags.total_refs          444684722                       # Total number of references to valid blocks.
system.cpu0.icache.tags.sampled_refs            67362                       # Sample count of references to valid blocks.
system.cpu0.icache.tags.avg_refs          6601.418040                       # Average number of references to valid blocks.
system.cpu0.icache.tags.warmup_cycle                0                       # Cycle when the warmup percentage was hit.
system.cpu0.icache.tags.occ_blocks::cpu0.inst   496.344581                       # Average occupied blocks per requestor
system.cpu0.icache.tags.occ_percent::cpu0.inst     0.969423                       # Average percentage of cache occupancy
system.cpu0.icache.tags.occ_percent::total     0.969423                       # Average percentage of cache occupancy
system.cpu0.icache.tags.occ_task_id_blocks::1024          511                       # Occupied blocks per task id
system.cpu0.icache.tags.age_task_id_blocks_1024::0           66                       # Occupied blocks per task id
system.cpu0.icache.tags.age_task_id_blocks_1024::1          180                       # Occupied blocks per task id
system.cpu0.icache.tags.age_task_id_blocks_1024::2            3                       # Occupied blocks per task id
system.cpu0.icache.tags.age_task_id_blocks_1024::3            1                       # Occupied blocks per task id
system.cpu0.icache.tags.age_task_id_blocks_1024::4          261                       # Occupied blocks per task id
system.cpu0.icache.tags.occ_task_id_percent::1024     0.998047                       # Percentage of cache occupancy per task id
system.cpu0.icache.tags.tag_accesses        889571530                       # Number of tag accesses
system.cpu0.icache.tags.data_accesses       889571530                       # Number of data accesses
system.cpu0.icache.pwrStateResidencyTicks::UNDEFINED 526624174500                       # Cumulative time (in ticks) in various power states
system.cpu0.icache.ReadReq_hits::cpu0.inst    444684722                       # number of ReadReq hits
system.cpu0.icache.ReadReq_hits::total      444684722                       # number of ReadReq hits
system.cpu0.icache.demand_hits::cpu0.inst    444684722                       # number of demand (read+write) hits
system.cpu0.icache.demand_hits::total       444684722                       # number of demand (read+write) hits
system.cpu0.icache.overall_hits::cpu0.inst    444684722                       # number of overall hits
system.cpu0.icache.overall_hits::total      444684722                       # number of overall hits
system.cpu0.icache.ReadReq_misses::cpu0.inst        67362                       # number of ReadReq misses
system.cpu0.icache.ReadReq_misses::total        67362                       # number of ReadReq misses
system.cpu0.icache.demand_misses::cpu0.inst        67362                       # number of demand (read+write) misses
system.cpu0.icache.demand_misses::total         67362                       # number of demand (read+write) misses
system.cpu0.icache.overall_misses::cpu0.inst        67362                       # number of overall misses
system.cpu0.icache.overall_misses::total        67362                       # number of overall misses
system.cpu0.icache.ReadReq_miss_latency::cpu0.inst    980279000                       # number of ReadReq miss cycles
system.cpu0.icache.ReadReq_miss_latency::total    980279000                       # number of ReadReq miss cycles
system.cpu0.icache.demand_miss_latency::cpu0.inst    980279000                       # number of demand (read+write) miss cycles
system.cpu0.icache.demand_miss_latency::total    980279000                       # number of demand (read+write) miss cycles
system.cpu0.icache.overall_miss_latency::cpu0.inst    980279000                       # number of overall miss cycles
[...]
system.l2.ReadExReq_mshr_misses::cpu1.data        17581                       # number of ReadExReq MSHR misses
system.l2.ReadExReq_mshr_misses::total          67976                       # number of ReadExReq MSHR misses
system.l2.ReadCleanReq_mshr_misses::cpu0.inst         1184                       # number of ReadCleanReq MSHR misses
system.l2.ReadCleanReq_mshr_misses::cpu1.inst           91                       # number of ReadCleanReq MSHR misses
system.l2.ReadCleanReq_mshr_misses::total         1275                       # number of ReadCleanReq MSHR misses
system.l2.ReadSharedReq_mshr_misses::cpu0.data        19716                       # number of ReadSharedReq MSHR misses
system.l2.ReadSharedReq_mshr_misses::cpu1.data        19962                       # number of ReadSharedReq MSHR misses
system.l2.ReadSharedReq_mshr_misses::total        39678                       # number of ReadSharedReq MSHR misses
system.l2.demand_mshr_misses::cpu0.inst          1184                       # number of demand (read+write) MSHR misses
system.l2.demand_mshr_misses::cpu0.data         70111                       # number of demand (read+write) MSHR misses
system.l2.demand_mshr_misses::cpu1.inst            91                       # number of demand (read+write) MSHR misses
system.l2.demand_mshr_misses::cpu1.data         37543                       # number of demand (read+write) MSHR misses
system.l2.demand_mshr_misses::total            108929                       # number of demand (read+write) MSHR misses
system.l2.overall_mshr_misses::cpu0.inst         1184                       # number of overall MSHR misses
system.l2.overall_mshr_misses::cpu0.data        70111                       # number of overall MSHR misses
system.l2.overall_mshr_misses::cpu1.inst           91                       # number of overall MSHR misses
system.l2.overall_mshr_misses::cpu1.data        37543                       # number of overall MSHR misses
system.l2.overall_mshr_misses::total           108929                       # number of overall MSHR misses
system.l2.ReadExReq_mshr_miss_latency::cpu0.data  11123224000                       # number of ReadExReq MSHR miss cycles
system.l2.ReadExReq_mshr_miss_latency::cpu1.data   1709556500                       # number of ReadExReq MSHR miss cycles
system.l2.ReadExReq_mshr_miss_latency::total  12832780500                       # number of ReadExReq MSHR miss cycles
system.l2.ReadCleanReq_mshr_miss_latency::cpu0.inst     99753000                       # number of ReadCleanReq MSHR miss cycles
system.l2.ReadCleanReq_mshr_miss_latency::cpu1.inst      9225000                       # number of ReadCleanReq MSHR miss cycles
system.l2.ReadCleanReq_mshr_miss_latency::total    108978000                       # number of ReadCleanReq MSHR miss cycles
system.l2.ReadSharedReq_mshr_miss_latency::cpu0.data   1612444500                       # number of ReadSharedReq MSHR miss cycles
system.l2.ReadSharedReq_mshr_miss_latency::cpu1.data   1673726000                       # number of ReadSharedReq MSHR miss cycles
system.l2.ReadSharedReq_mshr_miss_latency::total   3286170500                       # number of ReadSharedReq MSHR miss cycles
system.l2.demand_mshr_miss_latency::cpu0.inst     99753000                       # number of demand (read+write) MSHR miss cycles
system.l2.demand_mshr_miss_latency::cpu0.data  12735668500                       # number of demand (read+write) MSHR miss cycles
system.l2.demand_mshr_miss_latency::cpu1.inst      9225000                       # number of demand (read+write) MSHR miss cycles
system.l2.demand_mshr_miss_latency::cpu1.data   3383282500                       # number of demand (read+write) MSHR miss cycles
system.l2.demand_mshr_miss_latency::total  16227929000                       # number of demand (read+write) MSHR miss cycles
system.l2.overall_mshr_miss_latency::cpu0.inst     99753000                       # number of overall MSHR miss cycles
system.l2.overall_mshr_miss_latency::cpu0.data  12735668500                       # number of overall MSHR miss cycles
system.l2.overall_mshr_miss_latency::cpu1.inst      9225000                       # number of overall MSHR miss cycles
system.l2.overall_mshr_miss_latency::cpu1.data   3383282500                       # number of overall MSHR miss cycles
system.l2.overall_mshr_miss_latency::total  16227929000                       # number of overall MSHR miss cycles
system.l2.CleanEvict_mshr_miss_rate::writebacks          inf                       # mshr miss rate for CleanEvict accesses
system.l2.CleanEvict_mshr_miss_rate::total          inf                       # mshr miss rate for CleanEvict accesses
system.l2.ReadExReq_mshr_miss_rate::cpu0.data     0.864527                       # mshr miss rate for ReadExReq accesses
system.l2.ReadExReq_mshr_miss_rate::cpu1.data     0.707087                       # mshr miss rate for ReadExReq accesses
system.l2.ReadExReq_mshr_miss_rate::total     0.817452                       # mshr miss rate for ReadExReq accesses
system.l2.ReadCleanReq_mshr_miss_rate::cpu0.inst     0.017577                       # mshr miss rate for ReadCleanReq accesses
system.l2.ReadCleanReq_mshr_miss_rate::cpu1.inst     0.561728                       # mshr miss rate for ReadCleanReq accesses
system.l2.ReadCleanReq_mshr_miss_rate::total     0.018882                       # mshr miss rate for ReadCleanReq accesses
system.l2.ReadSharedReq_mshr_miss_rate::cpu0.data     0.390223                       # mshr miss rate for ReadSharedReq accesses
system.l2.ReadSharedReq_mshr_miss_rate::cpu1.data     0.400674                       # mshr miss rate for ReadSharedReq accesses
system.l2.ReadSharedReq_mshr_miss_rate::total     0.395412                       # mshr miss rate for ReadSharedReq accesses
system.l2.demand_mshr_miss_rate::cpu0.inst     0.017577                       # mshr miss rate for demand accesses
system.l2.demand_mshr_miss_rate::cpu0.data     0.644302                       # mshr miss rate for demand accesses
system.l2.demand_mshr_miss_rate::cpu1.inst     0.561728                       # mshr miss rate for demand accesses
system.l2.demand_mshr_miss_rate::cpu1.data     0.502685                       # mshr miss rate for demand accesses
system.l2.demand_mshr_miss_rate::total       0.433935                       # mshr miss rate for demand accesses
system.l2.overall_mshr_miss_rate::cpu0.inst     0.017577                       # mshr miss rate for overall accesses
system.l2.overall_mshr_miss_rate::cpu0.data     0.644302                       # mshr miss rate for overall accesses
system.l2.overall_mshr_miss_rate::cpu1.inst     0.561728                       # mshr miss rate for overall accesses
system.l2.overall_mshr_miss_rate::cpu1.data     0.502685                       # mshr miss rate for overall accesses
system.l2.overall_mshr_miss_rate::total      0.433935                       # mshr miss rate for overall accesses
system.l2.ReadExReq_avg_mshr_miss_latency::cpu0.data 220720.785792                       # average ReadExReq mshr miss latency
system.l2.ReadExReq_avg_mshr_miss_latency::cpu1.data 97238.865821                       # average ReadExReq mshr miss latency
system.l2.ReadExReq_avg_mshr_miss_latency::total 188783.989938                       # average ReadExReq mshr miss latency
system.l2.ReadCleanReq_avg_mshr_miss_latency::cpu0.inst 84250.844595                       # average ReadCleanReq mshr miss latency
system.l2.ReadCleanReq_avg_mshr_miss_latency::cpu1.inst 101373.626374                       # average ReadCleanReq mshr miss latency
system.l2.ReadCleanReq_avg_mshr_miss_latency::total 85472.941176                       # average ReadCleanReq mshr miss latency
system.l2.ReadSharedReq_avg_mshr_miss_latency::cpu0.data 81783.551430                       # average ReadSharedReq mshr miss latency
system.l2.ReadSharedReq_avg_mshr_miss_latency::cpu1.data 83845.606653                       # average ReadSharedReq mshr miss latency
system.l2.ReadSharedReq_avg_mshr_miss_latency::total 82820.971319                       # average ReadSharedReq mshr miss latency
system.l2.demand_avg_mshr_miss_latency::cpu0.inst 84250.844595                       # average overall mshr miss latency
system.l2.demand_avg_mshr_miss_latency::cpu0.data 181650.076308                       # average overall mshr miss latency
system.l2.demand_avg_mshr_miss_latency::cpu1.inst 101373.626374                       # average overall mshr miss latency
system.l2.demand_avg_mshr_miss_latency::cpu1.data 90117.531897                       # average overall mshr miss latency
system.l2.demand_avg_mshr_miss_latency::total 148977.122713                       # average overall mshr miss latency
system.l2.overall_avg_mshr_miss_latency::cpu0.inst 84250.844595                       # average overall mshr miss latency
system.l2.overall_avg_mshr_miss_latency::cpu0.data 181650.076308                       # average overall mshr miss latency
system.l2.overall_avg_mshr_miss_latency::cpu1.inst 101373.626374                       # average overall mshr miss latency
system.l2.overall_avg_mshr_miss_latency::cpu1.data 90117.531897                       # average overall mshr miss latency
system.l2.overall_avg_mshr_miss_latency::total 148977.122713                       # average overall mshr miss latency
system.membus.snoop_filter.tot_requests        184744                       # Total number of requests made to the snoop filter.
system.membus.snoop_filter.hit_single_requests        75851                       # Number of requests hitting in the snoop filter with a single holder of the requested data.
system.membus.snoop_filter.hit_multi_requests            0                       # Number of requests hitting in the snoop filter with multiple (>1) holders of the requested data.
system.membus.snoop_filter.tot_snoops               0                       # Total number of snoops made to the snoop filter.
system.membus.snoop_filter.hit_single_snoops            0                       # Number of snoops hitting in the snoop filter with a single holder of the requested data.
system.membus.snoop_filter.hit_multi_snoops            0                       # Number of snoops hitting in the snoop filter with multiple (>1) holders of the requested data.
system.membus.pwrStateResidencyTicks::UNDEFINED 526624174500                       # Cumulative time (in ticks) in various power states
system.membus.trans_dist::ReadResp              40953                       # Transaction distribution
system.membus.trans_dist::WritebackDirty        46151                       # Transaction distribution
system.membus.trans_dist::CleanEvict            29630                       # Transaction distribution
system.membus.trans_dist::UpgradeReq               12                       # Transaction distribution
system.membus.trans_dist::SCUpgradeReq             22                       # Transaction distribution
system.membus.trans_dist::ReadExReq             67976                       # Transaction distribution
system.membus.trans_dist::ReadExResp            67976                       # Transaction distribution
system.membus.trans_dist::ReadSharedReq         40953                       # Transaction distribution
system.membus.pkt_count_system.l2.mem_side::system.mem_ctrls.port       293673                       # Packet count per connected master and slave (bytes)
system.membus.pkt_count::total                 293673                       # Packet count per connected master and slave (bytes)
system.membus.pkt_size_system.l2.mem_side::system.mem_ctrls.port      9925120                       # Cumulative packet size per connected master and slave (bytes)
system.membus.pkt_size::total                 9925120                       # Cumulative packet size per connected master and slave (bytes)
system.membus.snoops                               34                       # Total snoops (count)
system.membus.snoopTraffic                          0                       # Total snoop traffic (bytes)
system.membus.snoop_fanout::samples            108963                       # Request fanout histogram
system.membus.snoop_fanout::mean                    0                       # Request fanout histogram
system.membus.snoop_fanout::stdev                   0                       # Request fanout histogram
system.membus.snoop_fanout::underflows              0      0.00%      0.00% # Request fanout histogram
system.membus.snoop_fanout::0                  108963    100.00%    100.00% # Request fanout histogram
system.membus.snoop_fanout::1                       0      0.00%    100.00% # Request fanout histogram
system.membus.snoop_fanout::overflows               0      0.00%    100.00% # Request fanout histogram
system.membus.snoop_fanout::min_value               0                       # Request fanout histogram
system.membus.snoop_fanout::max_value               0                       # Request fanout histogram
system.membus.snoop_fanout::total              108963                       # Request fanout histogram
system.membus.reqLayer0.occupancy           370602000                       # Layer occupancy (ticks)
system.membus.reqLayer0.utilization               0.1                       # Layer utilization (%)
system.membus.respLayer1.occupancy          592787750                       # Layer occupancy (ticks)
system.membus.respLayer1.utilization              0.1                       # Layer utilization (%)
system.tol2bus.snoop_filter.tot_requests       499572                       # Total number of requests made to the snoop filter.
system.tol2bus.snoop_filter.hit_single_requests       248508                       # Number of requests hitting in the snoop filter with a single holder of the requested data.
system.tol2bus.snoop_filter.hit_multi_requests          354                       # Number of requests hitting in the snoop filter with multiple (>1) holders of the requested data.
system.tol2bus.snoop_filter.tot_snoops            767                       # Total number of snoops made to the snoop filter.
system.tol2bus.snoop_filter.hit_single_snoops          663                       # Number of snoops hitting in the snoop filter with a single holder of the requested data.
system.tol2bus.snoop_filter.hit_multi_snoops          104                       # Number of snoops hitting in the snoop filter with multiple (>1) holders of the requested data.
system.tol2bus.pwrStateResidencyTicks::UNDEFINED 526624174500                       # Cumulative time (in ticks) in various power states
system.tol2bus.trans_dist::ReadResp            167985                       # Transaction distribution
system.tol2bus.trans_dist::WritebackDirty       195770                       # Transaction distribution
system.tol2bus.trans_dist::WritebackClean        66851                       # Transaction distribution
system.tol2bus.trans_dist::CleanEvict           62192                       # Transaction distribution
system.tol2bus.trans_dist::UpgradeReq              23                       # Transaction distribution
system.tol2bus.trans_dist::SCUpgradeReq            25                       # Transaction distribution
system.tol2bus.trans_dist::UpgradeResp             48                       # Transaction distribution
system.tol2bus.trans_dist::ReadExReq            83163                       # Transaction distribution
system.tol2bus.trans_dist::ReadExResp           83163                       # Transaction distribution
system.tol2bus.trans_dist::ReadCleanReq         67524                       # Transaction distribution
system.tol2bus.trans_dist::ReadSharedReq       100461                       # Transaction distribution
system.tol2bus.pkt_count_system.cpu0.icache.mem_side::system.l2.cpu_side       201575                       # Packet count per connected master and slave (bytes)
system.tol2bus.pkt_count_system.cpu0.dcache.mem_side::system.l2.cpu_side       325476                       # Packet count per connected master and slave (bytes)
system.tol2bus.pkt_count_system.cpu1.icache.mem_side::system.l2.cpu_side          324                       # Packet count per connected master and slave (bytes)
system.tol2bus.pkt_count_system.cpu1.dcache.mem_side::system.l2.cpu_side       223237                       # Packet count per connected master and slave (bytes)
system.tol2bus.pkt_count::total                750612                       # Packet count per connected master and slave (bytes)
system.tol2bus.pkt_size_system.cpu0.icache.mem_side::system.l2.cpu_side      8589632                       # Cumulative packet size per connected master and slave (bytes)
system.tol2bus.pkt_size_system.cpu0.dcache.mem_side::system.l2.cpu_side     12903232                       # Cumulative packet size per connected master and slave (bytes)
system.tol2bus.pkt_size_system.cpu1.icache.mem_side::system.l2.cpu_side        10368                       # Cumulative packet size per connected master and slave (bytes)
system.tol2bus.pkt_size_system.cpu1.dcache.mem_side::system.l2.cpu_side      8416448                       # Cumulative packet size per connected master and slave (bytes)
system.tol2bus.pkt_size::total               29919680                       # Cumulative packet size per connected master and slave (bytes)
system.tol2bus.snoops                           76593                       # Total snoops (count)
system.tol2bus.snoopTraffic                   2961536                       # Total snoop traffic (bytes)
system.tol2bus.snoop_fanout::samples           327633                       # Request fanout histogram
system.tol2bus.snoop_fanout::mean            0.004142                       # Request fanout histogram
system.tol2bus.snoop_fanout::stdev           0.069034                       # Request fanout histogram
system.tol2bus.snoop_fanout::underflows             0      0.00%      0.00% # Request fanout histogram
system.tol2bus.snoop_fanout::0                 326381     99.62%     99.62% # Request fanout histogram
system.tol2bus.snoop_fanout::1                   1147      0.35%     99.97% # Request fanout histogram
system.tol2bus.snoop_fanout::2                    105      0.03%    100.00% # Request fanout histogram
system.tol2bus.snoop_fanout::3                      0      0.00%    100.00% # Request fanout histogram
system.tol2bus.snoop_fanout::4                      0      0.00%    100.00% # Request fanout histogram
system.tol2bus.snoop_fanout::overflows              0      0.00%    100.00% # Request fanout histogram
system.tol2bus.snoop_fanout::min_value              0                       # Request fanout histogram
system.tol2bus.snoop_fanout::max_value              2                       # Request fanout histogram
system.tol2bus.snoop_fanout::total             327633                       # Request fanout histogram
system.tol2bus.reqLayer0.occupancy          466255000                       # Layer occupancy (ticks)
system.tol2bus.reqLayer0.utilization              0.1                       # Layer utilization (%)
system.tol2bus.respLayer0.occupancy         101044497                       # Layer occupancy (ticks)
system.tol2bus.respLayer0.utilization             0.0                       # Layer utilization (%)
system.tol2bus.respLayer1.occupancy         163308943                       # Layer occupancy (ticks)
system.tol2bus.respLayer1.utilization             0.0                       # Layer utilization (%)
system.tol2bus.respLayer4.occupancy            244497                       # Layer occupancy (ticks)
system.tol2bus.respLayer4.utilization             0.0                       # Layer utilization (%)
system.tol2bus.respLayer5.occupancy         112216925                       # Layer occupancy (ticks)
system.tol2bus.respLayer5.utilization             0.0                       # Layer utilization (%)

---------- End Simulation Statistics   ----------
