
---------- Begin Simulation Statistics ----------
sim_seconds                                  0.334222                       # Number of seconds simulated
sim_ticks                                334221947500                       # Number of ticks simulated
final_tick                               5552042019500                       # Number of ticks from beginning of simulation (restored from checkpoints and never reset)
sim_freq                                 1000000000000                       # Frequency of simulated ticks
host_inst_rate                                 567580                       # Simulator instruction rate (inst/s)
host_op_rate                                  1039614                       # Simulator op (including micro ops) rate (op/s)
host_tick_rate                              632325712                       # Simulator tick rate (ticks/s)
host_mem_usage                                1792408                       # Number of bytes of host memory used
host_seconds                                   528.56                       # Real time elapsed on the host
sim_insts                                   300000000                       # Number of instructions simulated
sim_ops                                     549498312                       # Number of ops (including micro ops) simulated
system.voltage_domain.voltage                       1                       # Voltage in Volts
system.clk_domain.clock                          1000                       # Clock period in ticks
system.mem_ctrls0.pwrStateResidencyTicks::UNDEFINED 5552042019500                       # Cumulative time (in ticks) in various power states
system.mem_ctrls0.bytes_read::ruby.dir_cntrl0      2020352                       # Number of bytes read from this memory
system.mem_ctrls0.bytes_read::total           2020352                       # Number of bytes read from this memory
system.mem_ctrls0.bytes_written::ruby.dir_cntrl0      2368896                       # Number of bytes written to this memory
system.mem_ctrls0.bytes_written::total        2368896                       # Number of bytes written to this memory
system.mem_ctrls0.num_reads::ruby.dir_cntrl0        31568                       # Number of read requests responded to by this memory
system.mem_ctrls0.num_reads::total              31568                       # Number of read requests responded to by this memory
system.mem_ctrls0.num_writes::ruby.dir_cntrl0        37014                       # Number of write requests responded to by this memory
system.mem_ctrls0.num_writes::total             37014                       # Number of write requests responded to by this memory
system.mem_ctrls0.bw_read::ruby.dir_cntrl0      6044941                       # Total read bandwidth from this memory (bytes/s)
system.mem_ctrls0.bw_read::total              6044941                       # Total read bandwidth from this memory (bytes/s)
system.mem_ctrls0.bw_write::ruby.dir_cntrl0      7087793                       # Write bandwidth from this memory (bytes/s)
system.mem_ctrls0.bw_write::total             7087793                       # Write bandwidth from this memory (bytes/s)
system.mem_ctrls0.bw_total::ruby.dir_cntrl0     13132734                       # Total bandwidth to/from this memory (bytes/s)
system.mem_ctrls0.bw_total::total            13132734                       # Total bandwidth to/from this memory (bytes/s)
system.mem_ctrls0.readReqs                      31568                       # Number of read requests accepted
system.mem_ctrls0.writeReqs                     37014                       # Number of write requests accepted
system.mem_ctrls0.readBursts                    31568                       # Number of DRAM read bursts, including those serviced by the write queue
system.mem_ctrls0.writeBursts                   37014                       # Number of DRAM write bursts, including those merged in the write queue
system.mem_ctrls0.bytesReadDRAM               1996928                       # Total number of bytes read from DRAM
system.mem_ctrls0.bytesReadWrQ                  23424                       # Total number of bytes read from write queue
system.mem_ctrls0.bytesWritten                2362176                       # Total number of bytes written to DRAM
system.mem_ctrls0.bytesReadSys                2020352                       # Total read bytes from the system interface side
system.mem_ctrls0.bytesWrittenSys             2368896                       # Total written bytes from the system interface side
system.mem_ctrls0.servicedByWrQ                   366                       # Number of DRAM read bursts serviced by the write queue
system.mem_ctrls0.mergedWrBursts                  102                       # Number of DRAM write bursts merged with an existing one
system.mem_ctrls0.neitherReadNorWriteReqs            0                       # Number of requests that are neither read nor write
system.mem_ctrls0.perBankRdBursts::0             2076                       # Per bank write bursts
system.mem_ctrls0.perBankRdBursts::1             2046                       # Per bank write bursts
system.mem_ctrls0.perBankRdBursts::2             2277                       # Per bank write bursts
system.mem_ctrls0.perBankRdBursts::3             1993                       # Per bank write bursts
system.mem_ctrls0.perBankRdBursts::4             1758                       # Per bank write bursts
system.mem_ctrls0.perBankRdBursts::5             1875                       # Per bank write bursts
system.mem_ctrls0.perBankRdBursts::6             1888                       # Per bank write bursts
system.mem_ctrls0.perBankRdBursts::7             1853                       # Per bank write bursts
system.mem_ctrls0.perBankRdBursts::8             1875                       # Per bank write bursts
system.mem_ctrls0.perBankRdBursts::9             1934                       # Per bank write bursts
system.mem_ctrls0.perBankRdBursts::10            1928                       # Per bank write bursts
system.mem_ctrls0.perBankRdBursts::11            1858                       # Per bank write bursts
system.mem_ctrls0.perBankRdBursts::12            1781                       # Per bank write bursts
system.mem_ctrls0.perBankRdBursts::13            1845                       # Per bank write bursts
system.mem_ctrls0.perBankRdBursts::14            2079                       # Per bank write bursts
system.mem_ctrls0.perBankRdBursts::15            2136                       # Per bank write bursts
system.mem_ctrls0.perBankWrBursts::0             2499                       # Per bank write bursts
system.mem_ctrls0.perBankWrBursts::1             2267                       # Per bank write bursts
system.mem_ctrls0.perBankWrBursts::2             2440                       # Per bank write bursts
system.mem_ctrls0.perBankWrBursts::3             2346                       # Per bank write bursts
system.mem_ctrls0.perBankWrBursts::4             2186                       # Per bank write bursts
system.mem_ctrls0.perBankWrBursts::5             2073                       # Per bank write bursts
system.mem_ctrls0.perBankWrBursts::6             2133                       # Per bank write bursts
system.mem_ctrls0.perBankWrBursts::7             2156                       # Per bank write bursts
system.mem_ctrls0.perBankWrBursts::8             2276                       # Per bank write bursts
system.mem_ctrls0.perBankWrBursts::9             2456                       # Per bank write bursts
system.mem_ctrls0.perBankWrBursts::10            2532                       # Per bank write bursts
system.mem_ctrls0.perBankWrBursts::11            2435                       # Per bank write bursts
system.mem_ctrls0.perBankWrBursts::12            2321                       # Per bank write bursts
system.mem_ctrls0.perBankWrBursts::13            2281                       # Per bank write bursts
system.mem_ctrls0.perBankWrBursts::14            2204                       # Per bank write bursts
system.mem_ctrls0.perBankWrBursts::15            2304                       # Per bank write bursts
system.mem_ctrls0.numRdRetry                        0                       # Number of times read queue was full causing retry
system.mem_ctrls0.numWrRetry                       54                       # Number of times write queue was full causing retry
system.mem_ctrls0.totGap                 334358299000                       # Total gap between requests
system.mem_ctrls0.readPktSize::0                    0                       # Read request sizes (log2)
system.mem_ctrls0.readPktSize::1                    0                       # Read request sizes (log2)
system.mem_ctrls0.readPktSize::2                    0                       # Read request sizes (log2)
system.mem_ctrls0.readPktSize::3                    0                       # Read request sizes (log2)
system.mem_ctrls0.readPktSize::4                    0                       # Read request sizes (log2)
system.mem_ctrls0.readPktSize::5                    0                       # Read request sizes (log2)
system.mem_ctrls0.readPktSize::6                31568                       # Read request sizes (log2)
system.mem_ctrls0.writePktSize::0                   0                       # Write request sizes (log2)
system.mem_ctrls0.writePktSize::1                   0                       # Write request sizes (log2)
system.mem_ctrls0.writePktSize::2                   0                       # Write request sizes (log2)
system.mem_ctrls0.writePktSize::3                   0                       # Write request sizes (log2)
system.mem_ctrls0.writePktSize::4                   0                       # Write request sizes (log2)
system.mem_ctrls0.writePktSize::5                   0                       # Write request sizes (log2)
system.mem_ctrls0.writePktSize::6               37014                       # Write request sizes (log2)
system.mem_ctrls0.rdQLenPdf::0                  31197                       # What read queue length does an incoming req see
system.mem_ctrls0.rdQLenPdf::1                      5                       # What read queue length does an incoming req see
system.mem_ctrls0.rdQLenPdf::2                      0                       # What read queue length does an incoming req see
system.mem_ctrls0.rdQLenPdf::3                      0                       # What read queue length does an incoming req see
system.mem_ctrls0.rdQLenPdf::4                      0                       # What read queue length does an incoming req see
system.mem_ctrls0.rdQLenPdf::5                      0                       # What read queue length does an incoming req see
system.mem_ctrls0.rdQLenPdf::6                      0                       # What read queue length does an incoming req see
system.mem_ctrls0.rdQLenPdf::7                      0                       # What read queue length does an incoming req see
system.mem_ctrls0.rdQLenPdf::8                      0                       # What read queue length does an incoming req see
system.mem_ctrls0.rdQLenPdf::9                      0                       # What read queue length does an incoming req see
system.mem_ctrls0.rdQLenPdf::10                     0                       # What read queue length does an incoming req see
system.mem_ctrls0.rdQLenPdf::11                     0                       # What read queue length does an incoming req see
system.mem_ctrls0.rdQLenPdf::12                     0                       # What read queue length does an incoming req see
system.mem_ctrls0.rdQLenPdf::13                     0                       # What read queue length does an incoming req see
system.mem_ctrls0.rdQLenPdf::14                     0                       # What read queue length does an incoming req see
system.mem_ctrls0.rdQLenPdf::15                     0                       # What read queue length does an incoming req see
system.mem_ctrls0.rdQLenPdf::16                     0                       # What read queue length does an incoming req see
system.mem_ctrls0.rdQLenPdf::17                     0                       # What read queue length does an incoming req see
system.mem_ctrls0.rdQLenPdf::18                     0                       # What read queue length does an incoming req see
system.mem_ctrls0.rdQLenPdf::19                     0                       # What read queue length does an incoming req see
system.mem_ctrls0.rdQLenPdf::20                     0                       # What read queue length does an incoming req see
system.mem_ctrls0.rdQLenPdf::21                     0                       # What read queue length does an incoming req see
system.mem_ctrls0.rdQLenPdf::22                     0                       # What read queue length does an incoming req see
system.mem_ctrls0.rdQLenPdf::23                     0                       # What read queue length does an incoming req see
system.mem_ctrls0.rdQLenPdf::24                     0                       # What read queue length does an incoming req see
system.mem_ctrls0.rdQLenPdf::25                     0                       # What read queue length does an incoming req see
system.mem_ctrls0.rdQLenPdf::26                     0                       # What read queue length does an incoming req see
system.mem_ctrls0.rdQLenPdf::27                     0                       # What read queue length does an incoming req see
system.mem_ctrls0.rdQLenPdf::28                     0                       # What read queue length does an incoming req see
system.mem_ctrls0.rdQLenPdf::29                     0                       # What read queue length does an incoming req see
system.mem_ctrls0.rdQLenPdf::30                     0                       # What read queue length does an incoming req see
system.mem_ctrls0.rdQLenPdf::31                     0                       # What read queue length does an incoming req see
system.mem_ctrls0.wrQLenPdf::0                      0                       # What write queue length does an incoming req see
system.mem_ctrls0.wrQLenPdf::1                      0                       # What write queue length does an incoming req see
system.mem_ctrls0.wrQLenPdf::2                      0                       # What write queue length does an incoming req see
system.mem_ctrls0.wrQLenPdf::3                      0                       # What write queue length does an incoming req see
system.mem_ctrls0.wrQLenPdf::4                      0                       # What write queue length does an incoming req see
system.mem_ctrls0.wrQLenPdf::5                      0                       # What write queue length does an incoming req see
system.mem_ctrls0.wrQLenPdf::6                      0                       # What write queue length does an incoming req see
system.mem_ctrls0.wrQLenPdf::7                      0                       # What write queue length does an incoming req see
system.mem_ctrls0.wrQLenPdf::8                      0                       # What write queue length does an incoming req see
system.mem_ctrls0.wrQLenPdf::9                      0                       # What write queue length does an incoming req see
system.mem_ctrls0.wrQLenPdf::10                     0                       # What write queue length does an incoming req see
system.mem_ctrls0.wrQLenPdf::11                     0                       # What write queue length does an incoming req see
system.mem_ctrls0.wrQLenPdf::12                     0                       # What write queue length does an incoming req see
system.mem_ctrls0.wrQLenPdf::13                     0                       # What write queue length does an incoming req see
system.mem_ctrls0.wrQLenPdf::14                     0                       # What write queue length does an incoming req see
system.mem_ctrls0.wrQLenPdf::15                   241                       # What write queue length does an incoming req see
system.mem_ctrls0.wrQLenPdf::16                   379                       # What write queue length does an incoming req see
system.mem_ctrls0.wrQLenPdf::17                  2049                       # What write queue length does an incoming req see
system.mem_ctrls0.wrQLenPdf::18                  2121                       # What write queue length does an incoming req see
system.mem_ctrls0.wrQLenPdf::19                  2155                       # What write queue length does an incoming req see
system.mem_ctrls0.wrQLenPdf::20                  2156                       # What write queue length does an incoming req see
system.mem_ctrls0.wrQLenPdf::21                  2158                       # What write queue length does an incoming req see
system.mem_ctrls0.wrQLenPdf::22                  2195                       # What write queue length does an incoming req see
system.mem_ctrls0.wrQLenPdf::23                  2183                       # What write queue length does an incoming req see
system.mem_ctrls0.wrQLenPdf::24                  2229                       # What write queue length does an incoming req see
system.mem_ctrls0.wrQLenPdf::25                  2270                       # What write queue length does an incoming req see
system.mem_ctrls0.wrQLenPdf::26                  2163                       # What write queue length does an incoming req see
system.mem_ctrls0.wrQLenPdf::27                  2140                       # What write queue length does an incoming req see
system.mem_ctrls0.wrQLenPdf::28                  2114                       # What write queue length does an incoming req see
system.mem_ctrls0.wrQLenPdf::29                  2051                       # What write queue length does an incoming req see
system.mem_ctrls0.wrQLenPdf::30                  2028                       # What write queue length does an incoming req see
system.mem_ctrls0.wrQLenPdf::31                  2015                       # What write queue length does an incoming req see
system.mem_ctrls0.wrQLenPdf::32                  2029                       # What write queue length does an incoming req see
system.mem_ctrls0.wrQLenPdf::33                   129                       # What write queue length does an incoming req see
system.mem_ctrls0.wrQLenPdf::34                   114                       # What write queue length does an incoming req see
system.mem_ctrls0.wrQLenPdf::35                   108                       # What write queue length does an incoming req see
system.mem_ctrls0.wrQLenPdf::36                    96                       # What write queue length does an incoming req see
system.mem_ctrls0.wrQLenPdf::37                    96                       # What write queue length does an incoming req see
system.mem_ctrls0.wrQLenPdf::38                    91                       # What write queue length does an incoming req see
system.mem_ctrls0.wrQLenPdf::39                    89                       # What write queue length does an incoming req see
system.mem_ctrls0.wrQLenPdf::40                    88                       # What write queue length does an incoming req see
system.mem_ctrls0.wrQLenPdf::41                    91                       # What write queue length does an incoming req see
system.mem_ctrls0.wrQLenPdf::42                    76                       # What write queue length does an incoming req see
system.mem_ctrls0.wrQLenPdf::43                    82                       # What write queue length does an incoming req see
system.mem_ctrls0.wrQLenPdf::44                    74                       # What write queue length does an incoming req see
system.mem_ctrls0.wrQLenPdf::45                    70                       # What write queue length does an incoming req see
system.mem_ctrls0.wrQLenPdf::46                    68                       # What write queue length does an incoming req see
system.mem_ctrls0.wrQLenPdf::47                    62                       # What write queue length does an incoming req see
system.mem_ctrls0.wrQLenPdf::48                    62                       # What write queue length does an incoming req see
system.mem_ctrls0.wrQLenPdf::49                    61                       # What write queue length does an incoming req see
system.mem_ctrls0.wrQLenPdf::50                    63                       # What write queue length does an incoming req see
system.mem_ctrls0.wrQLenPdf::51                    62                       # What write queue length does an incoming req see
system.mem_ctrls0.wrQLenPdf::52                    58                       # What write queue length does an incoming req see
system.mem_ctrls0.wrQLenPdf::53                    57                       # What write queue length does an incoming req see
system.mem_ctrls0.wrQLenPdf::54                    58                       # What write queue length does an incoming req see
system.mem_ctrls0.wrQLenPdf::55                    51                       # What write queue length does an incoming req see
system.mem_ctrls0.wrQLenPdf::56                    57                       # What write queue length does an incoming req see
system.mem_ctrls0.wrQLenPdf::57                    64                       # What write queue length does an incoming req see
system.mem_ctrls0.wrQLenPdf::58                    55                       # What write queue length does an incoming req see
system.mem_ctrls0.wrQLenPdf::59                    54                       # What write queue length does an incoming req see
system.mem_ctrls0.wrQLenPdf::60                    37                       # What write queue length does an incoming req see
system.mem_ctrls0.wrQLenPdf::61                    36                       # What write queue length does an incoming req see
system.mem_ctrls0.wrQLenPdf::62                    41                       # What write queue length does an incoming req see
system.mem_ctrls0.wrQLenPdf::63                    86                       # What write queue length does an incoming req see
system.mem_ctrls0.bytesPerActivate::samples        17179                       # Bytes accessed per row activation
system.mem_ctrls0.bytesPerActivate::mean   253.746085                       # Bytes accessed per row activation
system.mem_ctrls0.bytesPerActivate::gmean   180.144128                       # Bytes accessed per row activation
system.mem_ctrls0.bytesPerActivate::stdev   221.132658                       # Bytes accessed per row activation
system.mem_ctrls0.bytesPerActivate::0-127         5087     29.61%     29.61% # Bytes accessed per row activation
system.mem_ctrls0.bytesPerActivate::128-255         4710     27.42%     57.03% # Bytes accessed per row activation
system.mem_ctrls0.bytesPerActivate::256-383         2934     17.08%     74.11% # Bytes accessed per row activation
system.mem_ctrls0.bytesPerActivate::384-511         2246     13.07%     87.18% # Bytes accessed per row activation
system.mem_ctrls0.bytesPerActivate::512-639         1201      6.99%     94.17% # Bytes accessed per row activation
system.mem_ctrls0.bytesPerActivate::640-767          218      1.27%     95.44% # Bytes accessed per row activation
system.mem_ctrls0.bytesPerActivate::768-895          128      0.75%     96.19% # Bytes accessed per row activation
system.mem_ctrls0.bytesPerActivate::896-1023           98      0.57%     96.76% # Bytes accessed per row activation
system.mem_ctrls0.bytesPerActivate::1024-1151          557      3.24%    100.00% # Bytes accessed per row activation
system.mem_ctrls0.bytesPerActivate::total        17179                       # Bytes accessed per row activation
system.mem_ctrls0.rdPerTurnAround::samples         1948                       # Reads before turning the bus around for writes
system.mem_ctrls0.rdPerTurnAround::mean     16.016940                       # Reads before turning the bus around for writes
system.mem_ctrls0.rdPerTurnAround::stdev     8.128666                       # Reads before turning the bus around for writes
system.mem_ctrls0.rdPerTurnAround::0-3            258     13.24%     13.24% # Reads before turning the bus around for writes
system.mem_ctrls0.rdPerTurnAround::4-7             23      1.18%     14.43% # Reads before turning the bus around for writes
system.mem_ctrls0.rdPerTurnAround::8-11            34      1.75%     16.17% # Reads before turning the bus around for writes
system.mem_ctrls0.rdPerTurnAround::12-15           27      1.39%     17.56% # Reads before turning the bus around for writes
system.mem_ctrls0.rdPerTurnAround::16-19         1245     63.91%     81.47% # Reads before turning the bus around for writes
system.mem_ctrls0.rdPerTurnAround::20-23          210     10.78%     92.25% # Reads before turning the bus around for writes
system.mem_ctrls0.rdPerTurnAround::24-27           78      4.00%     96.25% # Reads before turning the bus around for writes
system.mem_ctrls0.rdPerTurnAround::28-31           36      1.85%     98.10% # Reads before turning the bus around for writes
system.mem_ctrls0.rdPerTurnAround::32-35           13      0.67%     98.77% # Reads before turning the bus around for writes
system.mem_ctrls0.rdPerTurnAround::36-39            7      0.36%     99.13% # Reads before turning the bus around for writes
system.mem_ctrls0.rdPerTurnAround::40-43            5      0.26%     99.38% # Reads before turning the bus around for writes
system.mem_ctrls0.rdPerTurnAround::44-47            3      0.15%     99.54% # Reads before turning the bus around for writes
system.mem_ctrls0.rdPerTurnAround::52-55            1      0.05%     99.59% # Reads before turning the bus around for writes
system.mem_ctrls0.rdPerTurnAround::56-59            4      0.21%     99.79% # Reads before turning the bus around for writes
system.mem_ctrls0.rdPerTurnAround::72-75            1      0.05%     99.85% # Reads before turning the bus around for writes
system.mem_ctrls0.rdPerTurnAround::80-83            1      0.05%     99.90% # Reads before turning the bus around for writes
system.mem_ctrls0.rdPerTurnAround::104-107            1      0.05%     99.95% # Reads before turning the bus around for writes
system.mem_ctrls0.rdPerTurnAround::112-115            1      0.05%    100.00% # Reads before turning the bus around for writes
system.mem_ctrls0.rdPerTurnAround::total         1948                       # Reads before turning the bus around for writes
system.mem_ctrls0.wrPerTurnAround::samples         1948                       # Writes before turning the bus around for reads
system.mem_ctrls0.wrPerTurnAround::mean     18.947125                       # Writes before turning the bus around for reads
system.mem_ctrls0.wrPerTurnAround::gmean    17.825461                       # Writes before turning the bus around for reads
system.mem_ctrls0.wrPerTurnAround::stdev     9.245095                       # Writes before turning the bus around for reads
system.mem_ctrls0.wrPerTurnAround::16-17         1661     85.27%     85.27% # Writes before turning the bus around for reads
system.mem_ctrls0.wrPerTurnAround::18-19           33      1.69%     86.96% # Writes before turning the bus around for reads
system.mem_ctrls0.wrPerTurnAround::20-21            9      0.46%     87.42% # Writes before turning the bus around for reads
system.mem_ctrls0.wrPerTurnAround::22-23            8      0.41%     87.83% # Writes before turning the bus around for reads
system.mem_ctrls0.wrPerTurnAround::24-25           16      0.82%     88.66% # Writes before turning the bus around for reads
system.mem_ctrls0.wrPerTurnAround::26-27           14      0.72%     89.37% # Writes before turning the bus around for reads
system.mem_ctrls0.wrPerTurnAround::28-29           33      1.69%     91.07% # Writes before turning the bus around for reads
system.mem_ctrls0.wrPerTurnAround::30-31           27      1.39%     92.45% # Writes before turning the bus around for reads
system.mem_ctrls0.wrPerTurnAround::32-33           24      1.23%     93.69% # Writes before turning the bus around for reads
system.mem_ctrls0.wrPerTurnAround::34-35           13      0.67%     94.35% # Writes before turning the bus around for reads
system.mem_ctrls0.wrPerTurnAround::36-37            6      0.31%     94.66% # Writes before turning the bus around for reads
system.mem_ctrls0.wrPerTurnAround::38-39            8      0.41%     95.07% # Writes before turning the bus around for reads
system.mem_ctrls0.wrPerTurnAround::40-41           13      0.67%     95.74% # Writes before turning the bus around for reads
system.mem_ctrls0.wrPerTurnAround::42-43           13      0.67%     96.41% # Writes before turning the bus around for reads
system.mem_ctrls0.wrPerTurnAround::44-45            9      0.46%     96.87% # Writes before turning the bus around for reads
system.mem_ctrls0.wrPerTurnAround::46-47            6      0.31%     97.18% # Writes before turning the bus around for reads
system.mem_ctrls0.wrPerTurnAround::48-49           18      0.92%     98.10% # Writes before turning the bus around for reads
system.mem_ctrls0.wrPerTurnAround::50-51            2      0.10%     98.20% # Writes before turning the bus around for reads
system.mem_ctrls0.wrPerTurnAround::52-53            6      0.31%     98.51% # Writes before turning the bus around for reads
system.mem_ctrls0.wrPerTurnAround::54-55            2      0.10%     98.61% # Writes before turning the bus around for reads
system.mem_ctrls0.wrPerTurnAround::56-57            5      0.26%     98.87% # Writes before turning the bus around for reads
system.mem_ctrls0.wrPerTurnAround::58-59            1      0.05%     98.92% # Writes before turning the bus around for reads
system.mem_ctrls0.wrPerTurnAround::60-61            3      0.15%     99.08% # Writes before turning the bus around for reads
system.mem_ctrls0.wrPerTurnAround::62-63            1      0.05%     99.13% # Writes before turning the bus around for reads
system.mem_ctrls0.wrPerTurnAround::64-65            1      0.05%     99.18% # Writes before turning the bus around for reads
system.mem_ctrls0.wrPerTurnAround::66-67            1      0.05%     99.23% # Writes before turning the bus around for reads
system.mem_ctrls0.wrPerTurnAround::68-69            1      0.05%     99.28% # Writes before turning the bus around for reads
system.mem_ctrls0.wrPerTurnAround::72-73            2      0.10%     99.38% # Writes before turning the bus around for reads
system.mem_ctrls0.wrPerTurnAround::74-75            1      0.05%     99.44% # Writes before turning the bus around for reads
system.mem_ctrls0.wrPerTurnAround::76-77            4      0.21%     99.64% # Writes before turning the bus around for reads
system.mem_ctrls0.wrPerTurnAround::78-79            1      0.05%     99.69% # Writes before turning the bus around for reads
system.mem_ctrls0.wrPerTurnAround::82-83            1      0.05%     99.74% # Writes before turning the bus around for reads
system.mem_ctrls0.wrPerTurnAround::84-85            1      0.05%     99.79% # Writes before turning the bus around for reads
system.mem_ctrls0.wrPerTurnAround::88-89            1      0.05%     99.85% # Writes before turning the bus around for reads
system.mem_ctrls0.wrPerTurnAround::94-95            1      0.05%     99.90% # Writes before turning the bus around for reads
system.mem_ctrls0.wrPerTurnAround::100-101            1      0.05%     99.95% # Writes before turning the bus around for reads
system.mem_ctrls0.wrPerTurnAround::106-107            1      0.05%    100.00% # Writes before turning the bus around for reads
system.mem_ctrls0.wrPerTurnAround::total         1948                       # Writes before turning the bus around for reads
system.mem_ctrls0.totQLat                  1685819249                       # Total ticks spent queuing
system.mem_ctrls0.totMemAccLat             2270856749                       # Total ticks spent from burst creation until serviced by the DRAM
system.mem_ctrls0.totBusLat                 156010000                       # Total ticks spent in databus transfers
system.mem_ctrls0.avgQLat                    54029.20                       # Average queueing delay per DRAM burst
system.mem_ctrls0.avgBusLat                   5000.00                       # Average bus latency per DRAM burst
system.mem_ctrls0.avgMemAccLat               72779.20                       # Average memory access latency per DRAM burst
system.mem_ctrls0.avgRdBW                        5.97                       # Average DRAM read bandwidth in MiByte/s
system.mem_ctrls0.avgWrBW                        7.07                       # Average achieved write bandwidth in MiByte/s
system.mem_ctrls0.avgRdBWSys                     6.04                       # Average system read bandwidth in MiByte/s
system.mem_ctrls0.avgWrBWSys                     7.09                       # Average system write bandwidth in MiByte/s
system.mem_ctrls0.peakBW                     12800.00                       # Theoretical peak bandwidth in MiByte/s
system.mem_ctrls0.busUtil                        0.10                       # Data bus utilization in percentage
system.mem_ctrls0.busUtilRead                    0.05                       # Data bus utilization in percentage for reads
system.mem_ctrls0.busUtilWrite                   0.06                       # Data bus utilization in percentage for writes
system.mem_ctrls0.avgRdQLen                      1.00                       # Average read queue length when enqueuing
system.mem_ctrls0.avgWrQLen                     25.58                       # Average write queue length when enqueuing
system.mem_ctrls0.readRowHits                   22935                       # Number of row buffer hits during reads
system.mem_ctrls0.writeRowHits                  27997                       # Number of row buffer hits during writes
system.mem_ctrls0.readRowHitRate                73.50                       # Row buffer hit rate for reads
system.mem_ctrls0.writeRowHitRate               75.85                       # Row buffer hit rate for writes
system.mem_ctrls0.avgGap                   4875306.92                       # Average gap between requests
system.mem_ctrls0.pageHitRate                   74.77                       # Row buffer hit rate, read and write combined
system.mem_ctrls0_0.actEnergy               101623620                       # Energy for activate commands per rank (pJ)
system.mem_ctrls0_0.preEnergy                54014235                       # Energy for precharge commands per rank (pJ)
system.mem_ctrls0_0.readEnergy              234013500                       # Energy for read commands per rank (pJ)
system.mem_ctrls0_0.writeEnergy             117147240                       # Energy for write commands per rank (pJ)
system.mem_ctrls0_0.refreshEnergy        8713751280.000002                       # Energy for refresh commands per rank (pJ)
system.mem_ctrls0_0.actBackEnergy          2865792420                       # Energy for active background per rank (pJ)
system.mem_ctrls0_0.preBackEnergy           513054720                       # Energy for precharge background per rank (pJ)
system.mem_ctrls0_0.actPowerDownEnergy    20984877750                       # Energy for active power-down per rank (pJ)
system.mem_ctrls0_0.prePowerDownEnergy    12477562560                       # Energy for precharge power-down per rank (pJ)
system.mem_ctrls0_0.selfRefreshEnergy    1313665882470                       # Energy for self refresh per rank (pJ)
system.mem_ctrls0_0.totalEnergy          1359730987035                       # Total energy per rank (pJ)
system.mem_ctrls0_0.averagePower           244.906465                       # Core power per rank (mW)
system.mem_ctrls0_0.totalIdleTime        330204351250                       # Total Idle time Per DRAM Rank
system.mem_ctrls0_0.memoryStateTime::IDLE    492185750                       # Time in different power states
system.mem_ctrls0_0.memoryStateTime::REF   1736890000                       # Time in different power states
system.mem_ctrls0_0.memoryStateTime::SREF 294707523000                       # Time in different power states
system.mem_ctrls0_0.memoryStateTime::PRE_PDN  15339919000                       # Time in different power states
system.mem_ctrls0_0.memoryStateTime::ACT   1924872000                       # Time in different power states
system.mem_ctrls0_0.memoryStateTime::ACT_PDN  20927588250                       # Time in different power states
system.mem_ctrls0_1.actEnergy                92120280                       # Energy for activate commands per rank (pJ)
system.mem_ctrls0_1.preEnergy                48963090                       # Energy for precharge commands per rank (pJ)
system.mem_ctrls0_1.readEnergy              229536720                       # Energy for read commands per rank (pJ)
system.mem_ctrls0_1.writeEnergy             117272520                       # Energy for write commands per rank (pJ)
system.mem_ctrls0_1.refreshEnergy        7619692080.000002                       # Energy for refresh commands per rank (pJ)
system.mem_ctrls0_1.actBackEnergy          2773475790                       # Energy for active background per rank (pJ)
system.mem_ctrls0_1.preBackEnergy           434659680                       # Energy for precharge background per rank (pJ)
system.mem_ctrls0_1.actPowerDownEnergy    19232660130                       # Energy for active power-down per rank (pJ)
system.mem_ctrls0_1.prePowerDownEnergy    10489878240                       # Energy for precharge power-down per rank (pJ)
system.mem_ctrls0_1.selfRefreshEnergy    1315589957025                       # Energy for self refresh per rank (pJ)
system.mem_ctrls0_1.totalEnergy          1356629587635                       # Total energy per rank (pJ)
system.mem_ctrls0_1.averagePower           244.347860                       # Core power per rank (mW)
system.mem_ctrls0_1.totalIdleTime        331469057750                       # Total Idle time Per DRAM Rank
system.mem_ctrls0_1.memoryStateTime::IDLE    436680750                       # Time in different power states
system.mem_ctrls0_1.memoryStateTime::REF   1620908000                       # Time in different power states
system.mem_ctrls0_1.memoryStateTime::SREF 299298394000                       # Time in different power states
system.mem_ctrls0_1.memoryStateTime::PRE_PDN  14160187250                       # Time in different power states
system.mem_ctrls0_1.memoryStateTime::ACT   2103898000                       # Time in different power states
system.mem_ctrls0_1.memoryStateTime::ACT_PDN  19912551750                       # Time in different power states
system.mem_ctrls1.pwrStateResidencyTicks::UNDEFINED 5552042019500                       # Cumulative time (in ticks) in various power states
system.mem_ctrls1.bytes_read::ruby.dir_cntrl1      2000960                       # Number of bytes read from this memory
system.mem_ctrls1.bytes_read::total           2000960                       # Number of bytes read from this memory
system.mem_ctrls1.bytes_written::ruby.dir_cntrl1      2373952                       # Number of bytes written to this memory
system.mem_ctrls1.bytes_written::total        2373952                       # Number of bytes written to this memory
system.mem_ctrls1.num_reads::ruby.dir_cntrl1        31265                       # Number of read requests responded to by this memory
system.mem_ctrls1.num_reads::total              31265                       # Number of read requests responded to by this memory
system.mem_ctrls1.num_writes::ruby.dir_cntrl1        37093                       # Number of write requests responded to by this memory
system.mem_ctrls1.num_writes::total             37093                       # Number of write requests responded to by this memory
system.mem_ctrls1.bw_read::ruby.dir_cntrl1      5986920                       # Total read bandwidth from this memory (bytes/s)
system.mem_ctrls1.bw_read::total              5986920                       # Total read bandwidth from this memory (bytes/s)
system.mem_ctrls1.bw_write::ruby.dir_cntrl1      7102921                       # Write bandwidth from this memory (bytes/s)
system.mem_ctrls1.bw_write::total             7102921                       # Write bandwidth from this memory (bytes/s)
system.mem_ctrls1.bw_total::ruby.dir_cntrl1     13089841                       # Total bandwidth to/from this memory (bytes/s)
system.mem_ctrls1.bw_total::total            13089841                       # Total bandwidth to/from this memory (bytes/s)
system.mem_ctrls1.readReqs                      31265                       # Number of read requests accepted
system.mem_ctrls1.writeReqs                     37093                       # Number of write requests accepted
system.mem_ctrls1.readBursts                    31265                       # Number of DRAM read bursts, including those serviced by the write queue
system.mem_ctrls1.writeBursts                   37093                       # Number of DRAM write bursts, including those merged in the write queue
system.mem_ctrls1.bytesReadDRAM               1985728                       # Total number of bytes read from DRAM
system.mem_ctrls1.bytesReadWrQ                  15232                       # Total number of bytes read from write queue
system.mem_ctrls1.bytesWritten                2374208                       # Total number of bytes written to DRAM
system.mem_ctrls1.bytesReadSys                2000960                       # Total read bytes from the system interface side
system.mem_ctrls1.bytesWrittenSys             2373952                       # Total written bytes from the system interface side
system.mem_ctrls1.servicedByWrQ                   238                       # Number of DRAM read bursts serviced by the write queue
system.mem_ctrls1.mergedWrBursts                    0                       # Number of DRAM write bursts merged with an existing one
system.mem_ctrls1.neitherReadNorWriteReqs            0                       # Number of requests that are neither read nor write
system.mem_ctrls1.perBankRdBursts::0             2077                       # Per bank write bursts
system.mem_ctrls1.perBankRdBursts::1             2049                       # Per bank write bursts
system.mem_ctrls1.perBankRdBursts::2             2057                       # Per bank write bursts
system.mem_ctrls1.perBankRdBursts::3             1988                       # Per bank write bursts
system.mem_ctrls1.perBankRdBursts::4             1756                       # Per bank write bursts
system.mem_ctrls1.perBankRdBursts::5             1875                       # Per bank write bursts
system.mem_ctrls1.perBankRdBursts::6             1888                       # Per bank write bursts
system.mem_ctrls1.perBankRdBursts::7             1867                       # Per bank write bursts
system.mem_ctrls1.perBankRdBursts::8             1878                       # Per bank write bursts
system.mem_ctrls1.perBankRdBursts::9             1919                       # Per bank write bursts
system.mem_ctrls1.perBankRdBursts::10            1950                       # Per bank write bursts
system.mem_ctrls1.perBankRdBursts::11            1852                       # Per bank write bursts
system.mem_ctrls1.perBankRdBursts::12            1780                       # Per bank write bursts
system.mem_ctrls1.perBankRdBursts::13            1859                       # Per bank write bursts
system.mem_ctrls1.perBankRdBursts::14            2086                       # Per bank write bursts
system.mem_ctrls1.perBankRdBursts::15            2146                       # Per bank write bursts
system.mem_ctrls1.perBankWrBursts::0             2506                       # Per bank write bursts
system.mem_ctrls1.perBankWrBursts::1             2267                       # Per bank write bursts
system.mem_ctrls1.perBankWrBursts::2             2343                       # Per bank write bursts
system.mem_ctrls1.perBankWrBursts::3             2383                       # Per bank write bursts
system.mem_ctrls1.perBankWrBursts::4             2193                       # Per bank write bursts
system.mem_ctrls1.perBankWrBursts::5             2106                       # Per bank write bursts
system.mem_ctrls1.perBankWrBursts::6             2201                       # Per bank write bursts
system.mem_ctrls1.perBankWrBursts::7             2160                       # Per bank write bursts
system.mem_ctrls1.perBankWrBursts::8             2287                       # Per bank write bursts
system.mem_ctrls1.perBankWrBursts::9             2449                       # Per bank write bursts
system.mem_ctrls1.perBankWrBursts::10            2624                       # Per bank write bursts
system.mem_ctrls1.perBankWrBursts::11            2441                       # Per bank write bursts
system.mem_ctrls1.perBankWrBursts::12            2326                       # Per bank write bursts
system.mem_ctrls1.perBankWrBursts::13            2288                       # Per bank write bursts
system.mem_ctrls1.perBankWrBursts::14            2215                       # Per bank write bursts
system.mem_ctrls1.perBankWrBursts::15            2308                       # Per bank write bursts
system.mem_ctrls1.numRdRetry                        0                       # Number of times read queue was full causing retry
system.mem_ctrls1.numWrRetry                      137                       # Number of times write queue was full causing retry
system.mem_ctrls1.totGap                 335639238000                       # Total gap between requests
system.mem_ctrls1.readPktSize::0                    0                       # Read request sizes (log2)
system.mem_ctrls1.readPktSize::1                    0                       # Read request sizes (log2)
system.mem_ctrls1.readPktSize::2                    0                       # Read request sizes (log2)
system.mem_ctrls1.readPktSize::3                    0                       # Read request sizes (log2)
system.mem_ctrls1.readPktSize::4                    0                       # Read request sizes (log2)
system.mem_ctrls1.readPktSize::5                    0                       # Read request sizes (log2)
system.mem_ctrls1.readPktSize::6                31265                       # Read request sizes (log2)
system.mem_ctrls1.writePktSize::0                   0                       # Write request sizes (log2)
system.mem_ctrls1.writePktSize::1                   0                       # Write request sizes (log2)
system.mem_ctrls1.writePktSize::2                   0                       # Write request sizes (log2)
system.mem_ctrls1.writePktSize::3                   0                       # Write request sizes (log2)
system.mem_ctrls1.writePktSize::4                   0                       # Write request sizes (log2)
system.mem_ctrls1.writePktSize::5                   0                       # Write request sizes (log2)
system.mem_ctrls1.writePktSize::6               37093                       # Write request sizes (log2)
system.mem_ctrls1.rdQLenPdf::0                  31027                       # What read queue length does an incoming req see
system.mem_ctrls1.rdQLenPdf::1                      0                       # What read queue length does an incoming req see
system.mem_ctrls1.rdQLenPdf::2                      0                       # What read queue length does an incoming req see
system.mem_ctrls1.rdQLenPdf::3                      0                       # What read queue length does an incoming req see
system.mem_ctrls1.rdQLenPdf::4                      0                       # What read queue length does an incoming req see
system.mem_ctrls1.rdQLenPdf::5                      0                       # What read queue length does an incoming req see
system.mem_ctrls1.rdQLenPdf::6                      0                       # What read queue length does an incoming req see
system.mem_ctrls1.rdQLenPdf::7                      0                       # What read queue length does an incoming req see
system.mem_ctrls1.rdQLenPdf::8                      0                       # What read queue length does an incoming req see
system.mem_ctrls1.rdQLenPdf::9                      0                       # What read queue length does an incoming req see
system.mem_ctrls1.rdQLenPdf::10                     0                       # What read queue length does an incoming req see
system.mem_ctrls1.rdQLenPdf::11                     0                       # What read queue length does an incoming req see
system.mem_ctrls1.rdQLenPdf::12                     0                       # What read queue length does an incoming req see
system.mem_ctrls1.rdQLenPdf::13                     0                       # What read queue length does an incoming req see
system.mem_ctrls1.rdQLenPdf::14                     0                       # What read queue length does an incoming req see
system.mem_ctrls1.rdQLenPdf::15                     0                       # What read queue length does an incoming req see
system.mem_ctrls1.rdQLenPdf::16                     0                       # What read queue length does an incoming req see
system.mem_ctrls1.rdQLenPdf::17                     0                       # What read queue length does an incoming req see
system.mem_ctrls1.rdQLenPdf::18                     0                       # What read queue length does an incoming req see
system.mem_ctrls1.rdQLenPdf::19                     0                       # What read queue length does an incoming req see
system.mem_ctrls1.rdQLenPdf::20                     0                       # What read queue length does an incoming req see
system.mem_ctrls1.rdQLenPdf::21                     0                       # What read queue length does an incoming req see
system.mem_ctrls1.rdQLenPdf::22                     0                       # What read queue length does an incoming req see
system.mem_ctrls1.rdQLenPdf::23                     0                       # What read queue length does an incoming req see
system.mem_ctrls1.rdQLenPdf::24                     0                       # What read queue length does an incoming req see
system.mem_ctrls1.rdQLenPdf::25                     0                       # What read queue length does an incoming req see
system.mem_ctrls1.rdQLenPdf::26                     0                       # What read queue length does an incoming req see
system.mem_ctrls1.rdQLenPdf::27                     0                       # What read queue length does an incoming req see
system.mem_ctrls1.rdQLenPdf::28                     0                       # What read queue length does an incoming req see
system.mem_ctrls1.rdQLenPdf::29                     0                       # What read queue length does an incoming req see
system.mem_ctrls1.rdQLenPdf::30                     0                       # What read queue length does an incoming req see
system.mem_ctrls1.rdQLenPdf::31                     0                       # What read queue length does an incoming req see
system.mem_ctrls1.wrQLenPdf::0                      0                       # What write queue length does an incoming req see
system.mem_ctrls1.wrQLenPdf::1                      0                       # What write queue length does an incoming req see
system.mem_ctrls1.wrQLenPdf::2                      0                       # What write queue length does an incoming req see
system.mem_ctrls1.wrQLenPdf::3                      0                       # What write queue length does an incoming req see
system.mem_ctrls1.wrQLenPdf::4                      0                       # What write queue length does an incoming req see
system.mem_ctrls1.wrQLenPdf::5                      0                       # What write queue length does an incoming req see
system.mem_ctrls1.wrQLenPdf::6                      0                       # What write queue length does an incoming req see
system.mem_ctrls1.wrQLenPdf::7                      0                       # What write queue length does an incoming req see
system.mem_ctrls1.wrQLenPdf::8                      0                       # What write queue length does an incoming req see
system.mem_ctrls1.wrQLenPdf::9                      0                       # What write queue length does an incoming req see
system.mem_ctrls1.wrQLenPdf::10                     0                       # What write queue length does an incoming req see
system.mem_ctrls1.wrQLenPdf::11                     0                       # What write queue length does an incoming req see
system.mem_ctrls1.wrQLenPdf::12                     0                       # What write queue length does an incoming req see
system.mem_ctrls1.wrQLenPdf::13                     0                       # What write queue length does an incoming req see
system.mem_ctrls1.wrQLenPdf::14                     0                       # What write queue length does an incoming req see
system.mem_ctrls1.wrQLenPdf::15                   254                       # What write queue length does an incoming req see
system.mem_ctrls1.wrQLenPdf::16                   376                       # What write queue length does an incoming req see
system.mem_ctrls1.wrQLenPdf::17                  2019                       # What write queue length does an incoming req see
system.mem_ctrls1.wrQLenPdf::18                  2099                       # What write queue length does an incoming req see
system.mem_ctrls1.wrQLenPdf::19                  2120                       # What write queue length does an incoming req see
system.mem_ctrls1.wrQLenPdf::20                  2093                       # What write queue length does an incoming req see
system.mem_ctrls1.wrQLenPdf::21                  2081                       # What write queue length does an incoming req see
system.mem_ctrls1.wrQLenPdf::22                  2159                       # What write queue length does an incoming req see
system.mem_ctrls1.wrQLenPdf::23                  2124                       # What write queue length does an incoming req see
system.mem_ctrls1.wrQLenPdf::24                  2191                       # What write queue length does an incoming req see
system.mem_ctrls1.wrQLenPdf::25                  2250                       # What write queue length does an incoming req see
system.mem_ctrls1.wrQLenPdf::26                  2078                       # What write queue length does an incoming req see
system.mem_ctrls1.wrQLenPdf::27                  2011                       # What write queue length does an incoming req see
system.mem_ctrls1.wrQLenPdf::28                  1997                       # What write queue length does an incoming req see
system.mem_ctrls1.wrQLenPdf::29                  1998                       # What write queue length does an incoming req see
system.mem_ctrls1.wrQLenPdf::30                  1987                       # What write queue length does an incoming req see
system.mem_ctrls1.wrQLenPdf::31                  1958                       # What write queue length does an incoming req see
system.mem_ctrls1.wrQLenPdf::32                  1948                       # What write queue length does an incoming req see
system.mem_ctrls1.wrQLenPdf::33                   123                       # What write queue length does an incoming req see
system.mem_ctrls1.wrQLenPdf::34                   118                       # What write queue length does an incoming req see
system.mem_ctrls1.wrQLenPdf::35                   119                       # What write queue length does an incoming req see
system.mem_ctrls1.wrQLenPdf::36                   113                       # What write queue length does an incoming req see
system.mem_ctrls1.wrQLenPdf::37                   113                       # What write queue length does an incoming req see
system.mem_ctrls1.wrQLenPdf::38                   107                       # What write queue length does an incoming req see
system.mem_ctrls1.wrQLenPdf::39                    97                       # What write queue length does an incoming req see
system.mem_ctrls1.wrQLenPdf::40                   100                       # What write queue length does an incoming req see
system.mem_ctrls1.wrQLenPdf::41                   111                       # What write queue length does an incoming req see
system.mem_ctrls1.wrQLenPdf::42                   105                       # What write queue length does an incoming req see
system.mem_ctrls1.wrQLenPdf::43                   107                       # What write queue length does an incoming req see
system.mem_ctrls1.wrQLenPdf::44                   108                       # What write queue length does an incoming req see
system.mem_ctrls1.wrQLenPdf::45                   103                       # What write queue length does an incoming req see
system.mem_ctrls1.wrQLenPdf::46                   107                       # What write queue length does an incoming req see
system.mem_ctrls1.wrQLenPdf::47                   113                       # What write queue length does an incoming req see
system.mem_ctrls1.wrQLenPdf::48                   115                       # What write queue length does an incoming req see
system.mem_ctrls1.wrQLenPdf::49                   103                       # What write queue length does an incoming req see
system.mem_ctrls1.wrQLenPdf::50                    91                       # What write queue length does an incoming req see
system.mem_ctrls1.wrQLenPdf::51                   100                       # What write queue length does an incoming req see
system.mem_ctrls1.wrQLenPdf::52                   103                       # What write queue length does an incoming req see
system.mem_ctrls1.wrQLenPdf::53                   119                       # What write queue length does an incoming req see
system.mem_ctrls1.wrQLenPdf::54                   102                       # What write queue length does an incoming req see
system.mem_ctrls1.wrQLenPdf::55                   120                       # What write queue length does an incoming req see
system.mem_ctrls1.wrQLenPdf::56                   113                       # What write queue length does an incoming req see
system.mem_ctrls1.wrQLenPdf::57                   112                       # What write queue length does an incoming req see
system.mem_ctrls1.wrQLenPdf::58                    93                       # What write queue length does an incoming req see
system.mem_ctrls1.wrQLenPdf::59                    89                       # What write queue length does an incoming req see
system.mem_ctrls1.wrQLenPdf::60                    77                       # What write queue length does an incoming req see
system.mem_ctrls1.wrQLenPdf::61                    64                       # What write queue length does an incoming req see
system.mem_ctrls1.wrQLenPdf::62                    84                       # What write queue length does an incoming req see
system.mem_ctrls1.wrQLenPdf::63                   221                       # What write queue length does an incoming req see
system.mem_ctrls1.bytesPerActivate::samples        16917                       # Bytes accessed per row activation
system.mem_ctrls1.bytesPerActivate::mean   257.725129                       # Bytes accessed per row activation
system.mem_ctrls1.bytesPerActivate::gmean   183.156653                       # Bytes accessed per row activation
system.mem_ctrls1.bytesPerActivate::stdev   222.797276                       # Bytes accessed per row activation
system.mem_ctrls1.bytesPerActivate::0-127         4876     28.82%     28.82% # Bytes accessed per row activation
system.mem_ctrls1.bytesPerActivate::128-255         4623     27.33%     56.15% # Bytes accessed per row activation
system.mem_ctrls1.bytesPerActivate::256-383         2886     17.06%     73.21% # Bytes accessed per row activation
system.mem_ctrls1.bytesPerActivate::384-511         2268     13.41%     86.62% # Bytes accessed per row activation
system.mem_ctrls1.bytesPerActivate::512-639         1239      7.32%     93.94% # Bytes accessed per row activation
system.mem_ctrls1.bytesPerActivate::640-767          244      1.44%     95.38% # Bytes accessed per row activation
system.mem_ctrls1.bytesPerActivate::768-895          124      0.73%     96.12% # Bytes accessed per row activation
system.mem_ctrls1.bytesPerActivate::896-1023           94      0.56%     96.67% # Bytes accessed per row activation
system.mem_ctrls1.bytesPerActivate::1024-1151          563      3.33%    100.00% # Bytes accessed per row activation
system.mem_ctrls1.bytesPerActivate::total        16917                       # Bytes accessed per row activation
system.mem_ctrls1.rdPerTurnAround::samples         1935                       # Reads before turning the bus around for writes
system.mem_ctrls1.rdPerTurnAround::mean     16.037726                       # Reads before turning the bus around for writes
system.mem_ctrls1.rdPerTurnAround::stdev     7.845597                       # Reads before turning the bus around for writes
system.mem_ctrls1.rdPerTurnAround::0-3            229     11.83%     11.83% # Reads before turning the bus around for writes
system.mem_ctrls1.rdPerTurnAround::4-7             34      1.76%     13.59% # Reads before turning the bus around for writes
system.mem_ctrls1.rdPerTurnAround::8-11            24      1.24%     14.83% # Reads before turning the bus around for writes
system.mem_ctrls1.rdPerTurnAround::12-15           29      1.50%     16.33% # Reads before turning the bus around for writes
system.mem_ctrls1.rdPerTurnAround::16-19         1275     65.89%     82.22% # Reads before turning the bus around for writes
system.mem_ctrls1.rdPerTurnAround::20-23          204     10.54%     92.76% # Reads before turning the bus around for writes
system.mem_ctrls1.rdPerTurnAround::24-27           82      4.24%     97.00% # Reads before turning the bus around for writes
system.mem_ctrls1.rdPerTurnAround::28-31           24      1.24%     98.24% # Reads before turning the bus around for writes
system.mem_ctrls1.rdPerTurnAround::32-35           15      0.78%     99.02% # Reads before turning the bus around for writes
system.mem_ctrls1.rdPerTurnAround::36-39            4      0.21%     99.22% # Reads before turning the bus around for writes
system.mem_ctrls1.rdPerTurnAround::40-43            2      0.10%     99.33% # Reads before turning the bus around for writes
system.mem_ctrls1.rdPerTurnAround::44-47            2      0.10%     99.43% # Reads before turning the bus around for writes
system.mem_ctrls1.rdPerTurnAround::48-51            2      0.10%     99.53% # Reads before turning the bus around for writes
system.mem_ctrls1.rdPerTurnAround::52-55            1      0.05%     99.59% # Reads before turning the bus around for writes
system.mem_ctrls1.rdPerTurnAround::56-59            1      0.05%     99.64% # Reads before turning the bus around for writes
system.mem_ctrls1.rdPerTurnAround::60-63            2      0.10%     99.74% # Reads before turning the bus around for writes
system.mem_ctrls1.rdPerTurnAround::64-67            1      0.05%     99.79% # Reads before turning the bus around for writes
system.mem_ctrls1.rdPerTurnAround::72-75            1      0.05%     99.84% # Reads before turning the bus around for writes
system.mem_ctrls1.rdPerTurnAround::76-79            1      0.05%     99.90% # Reads before turning the bus around for writes
system.mem_ctrls1.rdPerTurnAround::80-83            1      0.05%     99.95% # Reads before turning the bus around for writes
system.mem_ctrls1.rdPerTurnAround::104-107            1      0.05%    100.00% # Reads before turning the bus around for writes
system.mem_ctrls1.rdPerTurnAround::total         1935                       # Reads before turning the bus around for writes
system.mem_ctrls1.wrPerTurnAround::samples         1935                       # Writes before turning the bus around for reads
system.mem_ctrls1.wrPerTurnAround::mean     19.171576                       # Writes before turning the bus around for reads
system.mem_ctrls1.wrPerTurnAround::gmean    17.806886                       # Writes before turning the bus around for reads
system.mem_ctrls1.wrPerTurnAround::stdev    11.329488                       # Writes before turning the bus around for reads
system.mem_ctrls1.wrPerTurnAround::16-19         1696     87.65%     87.65% # Writes before turning the bus around for reads
system.mem_ctrls1.wrPerTurnAround::20-23           18      0.93%     88.58% # Writes before turning the bus around for reads
system.mem_ctrls1.wrPerTurnAround::24-27           27      1.40%     89.97% # Writes before turning the bus around for reads
system.mem_ctrls1.wrPerTurnAround::28-31           55      2.84%     92.82% # Writes before turning the bus around for reads
system.mem_ctrls1.wrPerTurnAround::32-35           30      1.55%     94.37% # Writes before turning the bus around for reads
system.mem_ctrls1.wrPerTurnAround::36-39           21      1.09%     95.45% # Writes before turning the bus around for reads
system.mem_ctrls1.wrPerTurnAround::40-43           12      0.62%     96.07% # Writes before turning the bus around for reads
system.mem_ctrls1.wrPerTurnAround::44-47           13      0.67%     96.74% # Writes before turning the bus around for reads
system.mem_ctrls1.wrPerTurnAround::48-51           22      1.14%     97.88% # Writes before turning the bus around for reads
system.mem_ctrls1.wrPerTurnAround::52-55            4      0.21%     98.09% # Writes before turning the bus around for reads
system.mem_ctrls1.wrPerTurnAround::56-59            4      0.21%     98.29% # Writes before turning the bus around for reads
system.mem_ctrls1.wrPerTurnAround::60-63            2      0.10%     98.40% # Writes before turning the bus around for reads
system.mem_ctrls1.wrPerTurnAround::64-67            4      0.21%     98.60% # Writes before turning the bus around for reads
system.mem_ctrls1.wrPerTurnAround::68-71            4      0.21%     98.81% # Writes before turning the bus around for reads
system.mem_ctrls1.wrPerTurnAround::72-75            3      0.16%     98.97% # Writes before turning the bus around for reads
system.mem_ctrls1.wrPerTurnAround::76-79            3      0.16%     99.12% # Writes before turning the bus around for reads
system.mem_ctrls1.wrPerTurnAround::80-83            1      0.05%     99.17% # Writes before turning the bus around for reads
system.mem_ctrls1.wrPerTurnAround::84-87            1      0.05%     99.22% # Writes before turning the bus around for reads
system.mem_ctrls1.wrPerTurnAround::88-91            1      0.05%     99.28% # Writes before turning the bus around for reads
system.mem_ctrls1.wrPerTurnAround::92-95            1      0.05%     99.33% # Writes before turning the bus around for reads
system.mem_ctrls1.wrPerTurnAround::96-99            1      0.05%     99.38% # Writes before turning the bus around for reads
system.mem_ctrls1.wrPerTurnAround::100-103            6      0.31%     99.69% # Writes before turning the bus around for reads
system.mem_ctrls1.wrPerTurnAround::104-107            1      0.05%     99.74% # Writes before turning the bus around for reads
system.mem_ctrls1.wrPerTurnAround::112-115            1      0.05%     99.79% # Writes before turning the bus around for reads
system.mem_ctrls1.wrPerTurnAround::116-119            1      0.05%     99.84% # Writes before turning the bus around for reads
system.mem_ctrls1.wrPerTurnAround::124-127            1      0.05%     99.90% # Writes before turning the bus around for reads
system.mem_ctrls1.wrPerTurnAround::128-131            1      0.05%     99.95% # Writes before turning the bus around for reads
system.mem_ctrls1.wrPerTurnAround::136-139            1      0.05%    100.00% # Writes before turning the bus around for reads
system.mem_ctrls1.wrPerTurnAround::total         1935                       # Writes before turning the bus around for reads
system.mem_ctrls1.totQLat                  1614286000                       # Total ticks spent queuing
system.mem_ctrls1.totMemAccLat             2196042250                       # Total ticks spent from burst creation until serviced by the DRAM
system.mem_ctrls1.totBusLat                 155135000                       # Total ticks spent in databus transfers
system.mem_ctrls1.avgQLat                    52028.43                       # Average queueing delay per DRAM burst
system.mem_ctrls1.avgBusLat                   5000.00                       # Average bus latency per DRAM burst
system.mem_ctrls1.avgMemAccLat               70778.43                       # Average memory access latency per DRAM burst
system.mem_ctrls1.avgRdBW                        5.94                       # Average DRAM read bandwidth in MiByte/s
system.mem_ctrls1.avgWrBW                        7.10                       # Average achieved write bandwidth in MiByte/s
system.mem_ctrls1.avgRdBWSys                     5.99                       # Average system read bandwidth in MiByte/s
system.mem_ctrls1.avgWrBWSys                     7.10                       # Average system write bandwidth in MiByte/s
system.mem_ctrls1.peakBW                     12800.00                       # Theoretical peak bandwidth in MiByte/s
system.mem_ctrls1.busUtil                        0.10                       # Data bus utilization in percentage
system.mem_ctrls1.busUtilRead                    0.05                       # Data bus utilization in percentage for reads
system.mem_ctrls1.busUtilWrite                   0.06                       # Data bus utilization in percentage for writes
system.mem_ctrls1.avgRdQLen                      1.00                       # Average read queue length when enqueuing
system.mem_ctrls1.avgWrQLen                     25.11                       # Average write queue length when enqueuing
system.mem_ctrls1.readRowHits                   22979                       # Number of row buffer hits during reads
system.mem_ctrls1.writeRowHits                  28228                       # Number of row buffer hits during writes
system.mem_ctrls1.readRowHitRate                74.06                       # Row buffer hit rate for reads
system.mem_ctrls1.writeRowHitRate               76.10                       # Row buffer hit rate for writes
system.mem_ctrls1.avgGap                   4910021.33                       # Average gap between requests
system.mem_ctrls1.pageHitRate                   75.17                       # Row buffer hit rate, read and write combined
system.mem_ctrls1_0.actEnergy                98082180                       # Energy for activate commands per rank (pJ)
system.mem_ctrls1_0.preEnergy                52131915                       # Energy for precharge commands per rank (pJ)
system.mem_ctrls1_0.readEnergy              232449840                       # Energy for read commands per rank (pJ)
system.mem_ctrls1_0.writeEnergy             117016740                       # Energy for write commands per rank (pJ)
system.mem_ctrls1_0.refreshEnergy        8389836000.000002                       # Energy for refresh commands per rank (pJ)
system.mem_ctrls1_0.actBackEnergy          2819417220                       # Energy for active background per rank (pJ)
system.mem_ctrls1_0.preBackEnergy           510671040                       # Energy for precharge background per rank (pJ)
system.mem_ctrls1_0.actPowerDownEnergy    20197818900                       # Energy for active power-down per rank (pJ)
system.mem_ctrls1_0.prePowerDownEnergy    11929212000                       # Energy for precharge power-down per rank (pJ)
system.mem_ctrls1_0.selfRefreshEnergy    1314384651225                       # Energy for self refresh per rank (pJ)
system.mem_ctrls1_0.totalEnergy          1358734366500                       # Total energy per rank (pJ)
system.mem_ctrls1_0.averagePower           244.726960                       # Core power per rank (mW)
system.mem_ctrls1_0.totalIdleTime        331776658500                       # Total Idle time Per DRAM Rank
system.mem_ctrls1_0.memoryStateTime::IDLE    502975500                       # Time in different power states
system.mem_ctrls1_0.memoryStateTime::REF   1667666000                       # Time in different power states
system.mem_ctrls1_0.memoryStateTime::SREF 298980117250                       # Time in different power states
system.mem_ctrls1_0.memoryStateTime::PRE_PDN  14781689750                       # Time in different power states
system.mem_ctrls1_0.memoryStateTime::ACT   1906582000                       # Time in different power states
system.mem_ctrls1_0.memoryStateTime::ACT_PDN  19905199500                       # Time in different power states
system.mem_ctrls1_1.actEnergy                91806120                       # Energy for activate commands per rank (pJ)
system.mem_ctrls1_1.preEnergy                48796110                       # Energy for precharge commands per rank (pJ)
system.mem_ctrls1_1.readEnergy              230057940                       # Energy for read commands per rank (pJ)
system.mem_ctrls1_1.writeEnergy             117966780                       # Energy for write commands per rank (pJ)
system.mem_ctrls1_1.refreshEnergy        7629526320.000002                       # Energy for refresh commands per rank (pJ)
system.mem_ctrls1_1.actBackEnergy          2765011290                       # Energy for active background per rank (pJ)
system.mem_ctrls1_1.preBackEnergy           434124480                       # Energy for precharge background per rank (pJ)
system.mem_ctrls1_1.actPowerDownEnergy    19120732650                       # Energy for active power-down per rank (pJ)
system.mem_ctrls1_1.prePowerDownEnergy    10506009120                       # Energy for precharge power-down per rank (pJ)
system.mem_ctrls1_1.selfRefreshEnergy    1315670140455                       # Energy for self refresh per rank (pJ)
system.mem_ctrls1_1.totalEnergy          1356615543705                       # Total energy per rank (pJ)
system.mem_ctrls1_1.averagePower           244.345331                       # Core power per rank (mW)
system.mem_ctrls1_1.totalIdleTime        331475162250                       # Total Idle time Per DRAM Rank
system.mem_ctrls1_1.memoryStateTime::IDLE    434460250                       # Time in different power states
system.mem_ctrls1_1.memoryStateTime::REF   1631554000                       # Time in different power states
system.mem_ctrls1_1.memoryStateTime::SREF 299260004000                       # Time in different power states
system.mem_ctrls1_1.memoryStateTime::PRE_PDN  14458217000                       # Time in different power states
system.mem_ctrls1_1.memoryStateTime::ACT   2082495250                       # Time in different power states
system.mem_ctrls1_1.memoryStateTime::ACT_PDN  19656189500                       # Time in different power states
system.mem_ctrls2.pwrStateResidencyTicks::UNDEFINED 5552042019500                       # Cumulative time (in ticks) in various power states
system.mem_ctrls2.bytes_read::ruby.dir_cntrl2      1998208                       # Number of bytes read from this memory
system.mem_ctrls2.bytes_read::total           1998208                       # Number of bytes read from this memory
system.mem_ctrls2.bytes_written::ruby.dir_cntrl2      2358336                       # Number of bytes written to this memory
system.mem_ctrls2.bytes_written::total        2358336                       # Number of bytes written to this memory
system.mem_ctrls2.num_reads::ruby.dir_cntrl2        31222                       # Number of read requests responded to by this memory
system.mem_ctrls2.num_reads::total              31222                       # Number of read requests responded to by this memory
system.mem_ctrls2.num_writes::ruby.dir_cntrl2        36849                       # Number of write requests responded to by this memory
system.mem_ctrls2.num_writes::total             36849                       # Number of write requests responded to by this memory
system.mem_ctrls2.bw_read::ruby.dir_cntrl2      5978686                       # Total read bandwidth from this memory (bytes/s)
system.mem_ctrls2.bw_read::total              5978686                       # Total read bandwidth from this memory (bytes/s)
system.mem_ctrls2.bw_write::ruby.dir_cntrl2      7056197                       # Write bandwidth from this memory (bytes/s)
system.mem_ctrls2.bw_write::total             7056197                       # Write bandwidth from this memory (bytes/s)
system.mem_ctrls2.bw_total::ruby.dir_cntrl2     13034883                       # Total bandwidth to/from this memory (bytes/s)
system.mem_ctrls2.bw_total::total            13034883                       # Total bandwidth to/from this memory (bytes/s)
system.mem_ctrls2.readReqs                      31222                       # Number of read requests accepted
system.mem_ctrls2.writeReqs                     36849                       # Number of write requests accepted
system.mem_ctrls2.readBursts                    31222                       # Number of DRAM read bursts, including those serviced by the write queue
system.mem_ctrls2.writeBursts                   36849                       # Number of DRAM write bursts, including those merged in the write queue
system.mem_ctrls2.bytesReadDRAM               1984192                       # Total number of bytes read from DRAM
system.mem_ctrls2.bytesReadWrQ                  14016                       # Total number of bytes read from write queue
system.mem_ctrls2.bytesWritten                2358592                       # Total number of bytes written to DRAM
system.mem_ctrls2.bytesReadSys                1998208                       # Total read bytes from the system interface side
system.mem_ctrls2.bytesWrittenSys             2358336                       # Total written bytes from the system interface side
system.mem_ctrls2.servicedByWrQ                   219                       # Number of DRAM read bursts serviced by the write queue
system.mem_ctrls2.mergedWrBursts                    0                       # Number of DRAM write bursts merged with an existing one
system.mem_ctrls2.neitherReadNorWriteReqs            0                       # Number of requests that are neither read nor write
system.mem_ctrls2.perBankRdBursts::0             2076                       # Per bank write bursts
system.mem_ctrls2.perBankRdBursts::1             2045                       # Per bank write bursts
system.mem_ctrls2.perBankRdBursts::2             2053                       # Per bank write bursts
system.mem_ctrls2.perBankRdBursts::3             1985                       # Per bank write bursts
system.mem_ctrls2.perBankRdBursts::4             1758                       # Per bank write bursts
system.mem_ctrls2.perBankRdBursts::5             1865                       # Per bank write bursts
system.mem_ctrls2.perBankRdBursts::6             1888                       # Per bank write bursts
system.mem_ctrls2.perBankRdBursts::7             1867                       # Per bank write bursts
system.mem_ctrls2.perBankRdBursts::8             1872                       # Per bank write bursts
system.mem_ctrls2.perBankRdBursts::9             1934                       # Per bank write bursts
system.mem_ctrls2.perBankRdBursts::10            1941                       # Per bank write bursts
system.mem_ctrls2.perBankRdBursts::11            1853                       # Per bank write bursts
system.mem_ctrls2.perBankRdBursts::12            1781                       # Per bank write bursts
[...]
system.ruby.L1Cache_Controller.M.PF_Load::total          188                      
system.ruby.L1Cache_Controller.M.PF_Store |         554    100.00%    100.00% |           0      0.00%    100.00% |           0      0.00%    100.00% |           0      0.00%    100.00% |           0      0.00%    100.00% |           0      0.00%    100.00% |           0      0.00%    100.00% |           0      0.00%    100.00%
system.ruby.L1Cache_Controller.M.PF_Store::total          554                      
system.ruby.L1Cache_Controller.IS.Data_Exclusive |      742988    100.00%    100.00% |           0      0.00%    100.00% |           0      0.00%    100.00% |           0      0.00%    100.00% |           0      0.00%    100.00% |           0      0.00%    100.00% |           0      0.00%    100.00% |           0      0.00%    100.00%
system.ruby.L1Cache_Controller.IS.Data_Exclusive::total       742988                      
system.ruby.L1Cache_Controller.IS.Data_all_Acks |     1389570    100.00%    100.00% |           0      0.00%    100.00% |           0      0.00%    100.00% |           0      0.00%    100.00% |           0      0.00%    100.00% |           0      0.00%    100.00% |           0      0.00%    100.00% |           0      0.00%    100.00%
system.ruby.L1Cache_Controller.IS.Data_all_Acks::total      1389570                      
system.ruby.L1Cache_Controller.IM.Data_all_Acks |      484599    100.00%    100.00% |           0      0.00%    100.00% |           0      0.00%    100.00% |           0      0.00%    100.00% |           0      0.00%    100.00% |           0      0.00%    100.00% |           0      0.00%    100.00% |           0      0.00%    100.00%
system.ruby.L1Cache_Controller.IM.Data_all_Acks::total       484599                      
system.ruby.L1Cache_Controller.M_I.Ifetch |           5    100.00%    100.00% |           0      0.00%    100.00% |           0      0.00%    100.00% |           0      0.00%    100.00% |           0      0.00%    100.00% |           0      0.00%    100.00% |           0      0.00%    100.00% |           0      0.00%    100.00%
system.ruby.L1Cache_Controller.M_I.Ifetch::total            5                      
system.ruby.L1Cache_Controller.M_I.WB_Ack |     1342166    100.00%    100.00% |           0      0.00%    100.00% |           0      0.00%    100.00% |           0      0.00%    100.00% |           0      0.00%    100.00% |           0      0.00%    100.00% |           0      0.00%    100.00% |           0      0.00%    100.00%
system.ruby.L1Cache_Controller.M_I.WB_Ack::total      1342166                      
system.ruby.L1Cache_Controller.PF_IS.Load |         807    100.00%    100.00% |           0      0.00%    100.00% |           0      0.00%    100.00% |           0      0.00%    100.00% |           0      0.00%    100.00% |           0      0.00%    100.00% |           0      0.00%    100.00% |           0      0.00%    100.00%
system.ruby.L1Cache_Controller.PF_IS.Load::total          807                      
system.ruby.L1Cache_Controller.PF_IS.Ifetch |          69    100.00%    100.00% |           0      0.00%    100.00% |           0      0.00%    100.00% |           0      0.00%    100.00% |           0      0.00%    100.00% |           0      0.00%    100.00% |           0      0.00%    100.00% |           0      0.00%    100.00%
system.ruby.L1Cache_Controller.PF_IS.Ifetch::total           69                      
system.ruby.L1Cache_Controller.PF_IS.Data_Exclusive |       45718    100.00%    100.00% |           0      0.00%    100.00% |           0      0.00%    100.00% |           0      0.00%    100.00% |           0      0.00%    100.00% |           0      0.00%    100.00% |           0      0.00%    100.00% |           0      0.00%    100.00%
system.ruby.L1Cache_Controller.PF_IS.Data_Exclusive::total        45718                      
system.ruby.L1Cache_Controller.PF_IS.Data_all_Acks |       56682    100.00%    100.00% |           0      0.00%    100.00% |           0      0.00%    100.00% |           0      0.00%    100.00% |           0      0.00%    100.00% |           0      0.00%    100.00% |           0      0.00%    100.00% |           0      0.00%    100.00%
system.ruby.L1Cache_Controller.PF_IS.Data_all_Acks::total        56682                      
system.ruby.L1Cache_Controller.PF_IM.Store |        3080    100.00%    100.00% |           0      0.00%    100.00% |           0      0.00%    100.00% |           0      0.00%    100.00% |           0      0.00%    100.00% |           0      0.00%    100.00% |           0      0.00%    100.00% |           0      0.00%    100.00%
system.ruby.L1Cache_Controller.PF_IM.Store::total         3080                      
system.ruby.L1Cache_Controller.PF_IM.Data_all_Acks |       69082    100.00%    100.00% |           0      0.00%    100.00% |           0      0.00%    100.00% |           0      0.00%    100.00% |           0      0.00%    100.00% |           0      0.00%    100.00% |           0      0.00%    100.00% |           0      0.00%    100.00%
system.ruby.L1Cache_Controller.PF_IM.Data_all_Acks::total        69082                      
system.ruby.L2Cache_Controller.L1_GET_INSTR |      156973     10.85%     10.85% |      179265     12.40%     23.25% |      176646     12.22%     35.47% |      175760     12.15%     47.62% |      177586     12.28%     59.90% |      194906     13.48%     73.38% |      209548     14.49%     87.87% |      175452     12.13%    100.00%
system.ruby.L2Cache_Controller.L1_GET_INSTR::total      1446136                      
system.ruby.L2Cache_Controller.L1_GETS   |      114205     14.48%     14.48% |      102624     13.01%     27.49% |      103224     13.09%     40.57% |       93318     11.83%     52.40% |       90315     11.45%     63.85% |       96948     12.29%     76.14% |       91228     11.57%     87.71% |       96960     12.29%    100.00%
system.ruby.L2Cache_Controller.L1_GETS::total       788822                      
system.ruby.L2Cache_Controller.L1_GETX   |       71332     12.88%     12.88% |       68289     12.33%     25.22% |       70021     12.65%     37.86% |       67132     12.12%     49.99% |       67316     12.16%     62.15% |       69950     12.63%     74.78% |       72313     13.06%     87.84% |       67328     12.16%    100.00%
system.ruby.L2Cache_Controller.L1_GETX::total       553681                      
system.ruby.L2Cache_Controller.L1_PUTX   |      185318     13.81%     13.81% |      170910     12.73%     26.54% |      173169     12.90%     39.44% |      160422     11.95%     51.40% |      157630     11.74%     63.14% |      166895     12.43%     75.58% |      163535     12.18%     87.76% |      164287     12.24%    100.00%
system.ruby.L2Cache_Controller.L1_PUTX::total      1342166                      
system.ruby.L2Cache_Controller.L2_Replacement |       26581     12.46%     12.46% |       26879     12.60%     25.05% |       26635     12.48%     37.54% |       26857     12.59%     50.12% |       26618     12.47%     62.60% |       26772     12.55%     75.14% |       26440     12.39%     87.53% |       26601     12.47%    100.00%
system.ruby.L2Cache_Controller.L2_Replacement::total       213383                      
system.ruby.L2Cache_Controller.L2_Replacement_clean |        3118     13.05%     13.05% |        3013     12.61%     25.67% |        2996     12.54%     38.21% |        2929     12.26%     50.48% |        2970     12.43%     62.91% |        2917     12.21%     75.12% |        2966     12.42%     87.54% |        2976     12.46%    100.00%
system.ruby.L2Cache_Controller.L2_Replacement_clean::total        23885                      
system.ruby.L2Cache_Controller.Mem_Data  |       31446     12.59%     12.59% |       31265     12.51%     25.10% |       31222     12.50%     37.60% |       31198     12.49%     50.09% |       31161     12.47%     62.56% |       31173     12.48%     75.04% |       31180     12.48%     87.52% |       31187     12.48%    100.00%
system.ruby.L2Cache_Controller.Mem_Data::total       249832                      
system.ruby.L2Cache_Controller.Mem_Ack   |       30091     12.60%     12.60% |       30065     12.59%     25.19% |       29797     12.48%     37.66% |       29953     12.54%     50.20% |       29755     12.46%     62.66% |       29856     12.50%     75.16% |       29574     12.38%     87.55% |       29746     12.45%    100.00%
system.ruby.L2Cache_Controller.Mem_Ack::total       238837                      
system.ruby.L2Cache_Controller.WB_Data   |         219    100.00%    100.00% |           0      0.00%    100.00% |           0      0.00%    100.00% |           0      0.00%    100.00% |           0      0.00%    100.00% |           0      0.00%    100.00% |           0      0.00%    100.00% |           0      0.00%    100.00%
system.ruby.L2Cache_Controller.WB_Data::total          219                      
system.ruby.L2Cache_Controller.Ack_all   |         857     12.81%     12.81% |         862     12.88%     25.69% |         829     12.39%     38.08% |         797     11.91%     49.99% |         824     12.32%     62.31% |         826     12.34%     74.65% |         851     12.72%     87.37% |         845     12.63%    100.00%
system.ruby.L2Cache_Controller.Ack_all::total         6691                      
system.ruby.L2Cache_Controller.Exclusive_Unblock |      185537     13.82%     13.82% |      170911     12.73%     26.55% |      173170     12.90%     39.45% |      160422     11.95%     51.40% |      157630     11.74%     63.15% |      166895     12.43%     75.58% |      163535     12.18%     87.76% |      164287     12.24%    100.00%
system.ruby.L2Cache_Controller.Exclusive_Unblock::total      1342387                      
system.ruby.L2Cache_Controller.MEM_Inv   |         784     24.98%     24.98% |         346     11.03%     36.01% |         332     10.58%     46.59% |         334     10.64%     57.23% |         334     10.64%     67.88% |         334     10.64%     78.52% |         336     10.71%     89.23% |         338     10.77%    100.00%
system.ruby.L2Cache_Controller.MEM_Inv::total         3138                      
system.ruby.L2Cache_Controller.NP.L1_GET_INSTR |         745     12.14%     12.14% |         777     12.66%     24.80% |         786     12.81%     37.60% |         764     12.45%     50.05% |         746     12.15%     62.20% |         758     12.35%     74.55% |         788     12.84%     87.39% |         774     12.61%    100.00%
system.ruby.L2Cache_Controller.NP.L1_GET_INSTR::total         6138                      
system.ruby.L2Cache_Controller.NP.L1_GETS |        6720     12.92%     12.92% |        6450     12.40%     25.32% |        6461     12.42%     37.74% |        6591     12.67%     50.40% |        6400     12.30%     62.71% |        6574     12.64%     75.34% |        6504     12.50%     87.85% |        6323     12.15%    100.00%
system.ruby.L2Cache_Controller.NP.L1_GETS::total        52023                      
system.ruby.L2Cache_Controller.NP.L1_GETX |       23981     12.51%     12.51% |       24038     12.54%     25.05% |       23975     12.51%     37.56% |       23843     12.44%     50.00% |       24015     12.53%     62.53% |       23841     12.44%     74.97% |       23888     12.46%     87.43% |       24090     12.57%    100.00%
system.ruby.L2Cache_Controller.NP.L1_GETX::total       191671                      
system.ruby.L2Cache_Controller.SS.L1_GET_INSTR |      156227     10.85%     10.85% |      178487     12.40%     23.24% |      175857     12.21%     35.46% |      174996     12.15%     47.61% |      176839     12.28%     59.89% |      194145     13.48%     73.37% |      208758     14.50%     87.87% |      174678     12.13%    100.00%
system.ruby.L2Cache_Controller.SS.L1_GET_INSTR::total      1439987                      
system.ruby.L2Cache_Controller.SS.L1_GETS |           0      0.00%      0.00% |           2      1.72%      1.72% |          75     64.66%     66.38% |          28     24.14%     90.52% |           1      0.86%     91.38% |           3      2.59%     93.97% |           6      5.17%     99.14% |           1      0.86%    100.00%
system.ruby.L2Cache_Controller.SS.L1_GETS::total          116                      
system.ruby.L2Cache_Controller.SS.L2_Replacement_clean |         857     12.81%     12.81% |         862     12.88%     25.69% |         829     12.39%     38.08% |         797     11.91%     49.99% |         824     12.32%     62.31% |         826     12.34%     74.65% |         851     12.72%     87.37% |         845     12.63%    100.00%
system.ruby.L2Cache_Controller.SS.L2_Replacement_clean::total         6691                      
system.ruby.L2Cache_Controller.M.L1_GET_INSTR |           1      9.09%      9.09% |           1      9.09%     18.18% |           3     27.27%     45.45% |           0      0.00%     45.45% |           1      9.09%     54.55% |           3     27.27%     81.82% |           2     18.18%    100.00% |           0      0.00%    100.00%
system.ruby.L2Cache_Controller.M.L1_GET_INSTR::total           11                      
system.ruby.L2Cache_Controller.M.L1_GETS |      107485     14.59%     14.59% |       96172     13.05%     27.65% |       96688     13.12%     40.77% |       86699     11.77%     52.54% |       83914     11.39%     63.93% |       90371     12.27%     76.20% |       84718     11.50%     87.70% |       90636     12.30%    100.00%
system.ruby.L2Cache_Controller.M.L1_GETS::total       736683                      
system.ruby.L2Cache_Controller.M.L1_GETX |       47351     13.08%     13.08% |       44251     12.22%     25.30% |       46046     12.72%     38.02% |       43289     11.96%     49.98% |       43301     11.96%     61.94% |       46109     12.74%     74.68% |       48425     13.38%     88.06% |       43238     11.94%    100.00%
system.ruby.L2Cache_Controller.M.L1_GETX::total       362010                      
system.ruby.L2Cache_Controller.M.L2_Replacement |       26581     12.46%     12.46% |       26879     12.60%     25.05% |       26635     12.48%     37.54% |       26857     12.59%     50.12% |       26618     12.47%     62.60% |       26772     12.55%     75.14% |       26440     12.39%     87.53% |       26601     12.47%    100.00%
system.ruby.L2Cache_Controller.M.L2_Replacement::total       213383                      
system.ruby.L2Cache_Controller.M.L2_Replacement_clean |        2261     13.15%     13.15% |        2151     12.51%     25.66% |        2167     12.60%     38.26% |        2132     12.40%     50.66% |        2146     12.48%     63.14% |        2091     12.16%     75.31% |        2115     12.30%     87.61% |        2131     12.39%    100.00%
system.ruby.L2Cache_Controller.M.L2_Replacement_clean::total        17194                      
system.ruby.L2Cache_Controller.M.MEM_Inv |         173     12.81%     12.81% |         173     12.81%     25.63% |         166     12.30%     37.93% |         167     12.37%     50.30% |         167     12.37%     62.67% |         167     12.37%     75.04% |         168     12.44%     87.48% |         169     12.52%    100.00%
system.ruby.L2Cache_Controller.M.MEM_Inv::total         1350                      
system.ruby.L2Cache_Controller.MT.L1_PUTX |      185318     13.81%     13.81% |      170910     12.73%     26.54% |      173169     12.90%     39.44% |      160422     11.95%     51.40% |      157630     11.74%     63.14% |      166895     12.43%     75.58% |      163535     12.18%     87.76% |      164287     12.24%    100.00%
system.ruby.L2Cache_Controller.MT.L1_PUTX::total      1342166                      
system.ruby.L2Cache_Controller.MT.MEM_Inv |         219    100.00%    100.00% |           0      0.00%    100.00% |           0      0.00%    100.00% |           0      0.00%    100.00% |           0      0.00%    100.00% |           0      0.00%    100.00% |           0      0.00%    100.00% |           0      0.00%    100.00%
system.ruby.L2Cache_Controller.MT.MEM_Inv::total          219                      
system.ruby.L2Cache_Controller.M_I.Mem_Ack |       30091     12.60%     12.60% |       30065     12.59%     25.19% |       29797     12.48%     37.66% |       29953     12.54%     50.20% |       29755     12.46%     62.66% |       29856     12.50%     75.16% |       29574     12.38%     87.55% |       29746     12.45%    100.00%
system.ruby.L2Cache_Controller.M_I.Mem_Ack::total       238837                      
system.ruby.L2Cache_Controller.M_I.MEM_Inv |         173     12.81%     12.81% |         173     12.81%     25.63% |         166     12.30%     37.93% |         167     12.37%     50.30% |         167     12.37%     62.67% |         167     12.37%     75.04% |         168     12.44%     87.48% |         169     12.52%    100.00%
system.ruby.L2Cache_Controller.M_I.MEM_Inv::total         1350                      
system.ruby.L2Cache_Controller.MT_I.WB_Data |         219    100.00%    100.00% |           0      0.00%    100.00% |           0      0.00%    100.00% |           0      0.00%    100.00% |           0      0.00%    100.00% |           0      0.00%    100.00% |           0      0.00%    100.00% |           0      0.00%    100.00%
system.ruby.L2Cache_Controller.MT_I.WB_Data::total          219                      
system.ruby.L2Cache_Controller.MT_I.MEM_Inv |         219    100.00%    100.00% |           0      0.00%    100.00% |           0      0.00%    100.00% |           0      0.00%    100.00% |           0      0.00%    100.00% |           0      0.00%    100.00% |           0      0.00%    100.00% |           0      0.00%    100.00%
system.ruby.L2Cache_Controller.MT_I.MEM_Inv::total          219                      
system.ruby.L2Cache_Controller.I_I.Ack_all |         857     12.81%     12.81% |         862     12.88%     25.69% |         829     12.39%     38.08% |         797     11.91%     49.99% |         824     12.32%     62.31% |         826     12.34%     74.65% |         851     12.72%     87.37% |         845     12.63%    100.00%
system.ruby.L2Cache_Controller.I_I.Ack_all::total         6691                      
system.ruby.L2Cache_Controller.ISS.Mem_Data |        6720     12.92%     12.92% |        6450     12.40%     25.32% |        6461     12.42%     37.74% |        6591     12.67%     50.40% |        6400     12.30%     62.71% |        6574     12.64%     75.34% |        6504     12.50%     87.85% |        6323     12.15%    100.00%
system.ruby.L2Cache_Controller.ISS.Mem_Data::total        52023                      
system.ruby.L2Cache_Controller.IS.Mem_Data |         745     12.14%     12.14% |         777     12.66%     24.80% |         786     12.81%     37.60% |         764     12.45%     50.05% |         746     12.15%     62.20% |         758     12.35%     74.55% |         788     12.84%     87.39% |         774     12.61%    100.00%
system.ruby.L2Cache_Controller.IS.Mem_Data::total         6138                      
system.ruby.L2Cache_Controller.IM.Mem_Data |       23981     12.51%     12.51% |       24038     12.54%     25.05% |       23975     12.51%     37.56% |       23843     12.44%     50.00% |       24015     12.53%     62.53% |       23841     12.44%     74.97% |       23888     12.46%     87.43% |       24090     12.57%    100.00%
system.ruby.L2Cache_Controller.IM.Mem_Data::total       191671                      
system.ruby.L2Cache_Controller.MT_MB.Exclusive_Unblock |      185537     13.82%     13.82% |      170911     12.73%     26.55% |      173170     12.90%     39.45% |      160422     11.95%     51.40% |      157630     11.74%     63.15% |      166895     12.43%     75.58% |      163535     12.18%     87.76% |      164287     12.24%    100.00%
system.ruby.L2Cache_Controller.MT_MB.Exclusive_Unblock::total      1342387                      

---------- End Simulation Statistics   ----------
