
---------- Begin Simulation Statistics ----------
sim_seconds                                  4.224914                       # Number of seconds simulated
sim_ticks                                4224913917000                       # Number of ticks simulated
final_tick                               9594303630000                       # Number of ticks from beginning of simulation (restored from checkpoints and never reset)
sim_freq                                 1000000000000                       # Frequency of simulated ticks
host_inst_rate                                 535822                       # Simulator instruction rate (inst/s)
host_op_rate                                   974225                       # Simulator op (including micro ops) rate (op/s)
host_tick_rate                             1027283716                       # Simulator tick rate (ticks/s)
host_mem_usage                                2079236                       # Number of bytes of host memory used
host_seconds                                  4112.70                       # Real time elapsed on the host
sim_insts                                  2203675649                       # Number of instructions simulated
sim_ops                                    4006700685                       # Number of ops (including micro ops) simulated
system.voltage_domain.voltage                       1                       # Voltage in Volts
system.clk_domain.clock                          1000                       # Clock period in ticks
system.mem_ctrls0.pwrStateResidencyTicks::UNDEFINED 9594303630000                       # Cumulative time (in ticks) in various power states
system.mem_ctrls0.bytes_read::ruby.dir_cntrl0     41707584                       # Number of bytes read from this memory
system.mem_ctrls0.bytes_read::total          41707584                       # Number of bytes read from this memory
system.mem_ctrls0.bytes_written::ruby.dir_cntrl0     42120384                       # Number of bytes written to this memory
system.mem_ctrls0.bytes_written::total       42120384                       # Number of bytes written to this memory
system.mem_ctrls0.num_reads::ruby.dir_cntrl0       651681                       # Number of read requests responded to by this memory
system.mem_ctrls0.num_reads::total             651681                       # Number of read requests responded to by this memory
system.mem_ctrls0.num_writes::ruby.dir_cntrl0       658131                       # Number of write requests responded to by this memory
system.mem_ctrls0.num_writes::total            658131                       # Number of write requests responded to by this memory
system.mem_ctrls0.bw_read::ruby.dir_cntrl0      9871819                       # Total read bandwidth from this memory (bytes/s)
system.mem_ctrls0.bw_read::total              9871819                       # Total read bandwidth from this memory (bytes/s)
system.mem_ctrls0.bw_write::ruby.dir_cntrl0      9969525                       # Write bandwidth from this memory (bytes/s)
system.mem_ctrls0.bw_write::total             9969525                       # Write bandwidth from this memory (bytes/s)
system.mem_ctrls0.bw_total::ruby.dir_cntrl0     19841343                       # Total bandwidth to/from this memory (bytes/s)
system.mem_ctrls0.bw_total::total            19841343                       # Total bandwidth to/from this memory (bytes/s)
system.mem_ctrls0.readReqs                     651681                       # Number of read requests accepted
system.mem_ctrls0.writeReqs                    658131                       # Number of write requests accepted
system.mem_ctrls0.readBursts                   651681                       # Number of DRAM read bursts, including those serviced by the write queue
system.mem_ctrls0.writeBursts                  658131                       # Number of DRAM write bursts, including those merged in the write queue
system.mem_ctrls0.bytesReadDRAM              33677248                       # Total number of bytes read from DRAM
system.mem_ctrls0.bytesReadWrQ                8030336                       # Total number of bytes read from write queue
system.mem_ctrls0.bytesWritten               37857152                       # Total number of bytes written to DRAM
system.mem_ctrls0.bytesReadSys               41707584                       # Total read bytes from the system interface side
system.mem_ctrls0.bytesWrittenSys            42120384                       # Total written bytes from the system interface side
system.mem_ctrls0.servicedByWrQ                125474                       # Number of DRAM read bursts serviced by the write queue
system.mem_ctrls0.mergedWrBursts                66603                       # Number of DRAM write bursts merged with an existing one
system.mem_ctrls0.neitherReadNorWriteReqs            0                       # Number of requests that are neither read nor write
system.mem_ctrls0.perBankRdBursts::0            39061                       # Per bank write bursts
system.mem_ctrls0.perBankRdBursts::1            31841                       # Per bank write bursts
system.mem_ctrls0.perBankRdBursts::2            43081                       # Per bank write bursts
system.mem_ctrls0.perBankRdBursts::3            47513                       # Per bank write bursts
system.mem_ctrls0.perBankRdBursts::4            47040                       # Per bank write bursts
system.mem_ctrls0.perBankRdBursts::5            37817                       # Per bank write bursts
system.mem_ctrls0.perBankRdBursts::6            32245                       # Per bank write bursts
system.mem_ctrls0.perBankRdBursts::7            32554                       # Per bank write bursts
system.mem_ctrls0.perBankRdBursts::8            22405                       # Per bank write bursts
system.mem_ctrls0.perBankRdBursts::9            21982                       # Per bank write bursts
system.mem_ctrls0.perBankRdBursts::10           24568                       # Per bank write bursts
system.mem_ctrls0.perBankRdBursts::11           22035                       # Per bank write bursts
system.mem_ctrls0.perBankRdBursts::12           20312                       # Per bank write bursts
system.mem_ctrls0.perBankRdBursts::13           34601                       # Per bank write bursts
system.mem_ctrls0.perBankRdBursts::14           34621                       # Per bank write bursts
system.mem_ctrls0.perBankRdBursts::15           34531                       # Per bank write bursts
system.mem_ctrls0.perBankWrBursts::0            42921                       # Per bank write bursts
system.mem_ctrls0.perBankWrBursts::1            34737                       # Per bank write bursts
system.mem_ctrls0.perBankWrBursts::2            48932                       # Per bank write bursts
system.mem_ctrls0.perBankWrBursts::3            53686                       # Per bank write bursts
system.mem_ctrls0.perBankWrBursts::4            52714                       # Per bank write bursts
system.mem_ctrls0.perBankWrBursts::5            44934                       # Per bank write bursts
system.mem_ctrls0.perBankWrBursts::6            36397                       # Per bank write bursts
system.mem_ctrls0.perBankWrBursts::7            37533                       # Per bank write bursts
system.mem_ctrls0.perBankWrBursts::8            25076                       # Per bank write bursts
system.mem_ctrls0.perBankWrBursts::9            24016                       # Per bank write bursts
system.mem_ctrls0.perBankWrBursts::10           27937                       # Per bank write bursts
system.mem_ctrls0.perBankWrBursts::11           23319                       # Per bank write bursts
system.mem_ctrls0.perBankWrBursts::12           21610                       # Per bank write bursts
system.mem_ctrls0.perBankWrBursts::13           37616                       # Per bank write bursts
system.mem_ctrls0.perBankWrBursts::14           38432                       # Per bank write bursts
system.mem_ctrls0.perBankWrBursts::15           41658                       # Per bank write bursts
system.mem_ctrls0.numRdRetry                        0                       # Number of times read queue was full causing retry
system.mem_ctrls0.numWrRetry                        0                       # Number of times write queue was full causing retry
system.mem_ctrls0.totGap                 4224913799500                       # Total gap between requests
system.mem_ctrls0.readPktSize::0                    0                       # Read request sizes (log2)
system.mem_ctrls0.readPktSize::1                    0                       # Read request sizes (log2)
system.mem_ctrls0.readPktSize::2                    0                       # Read request sizes (log2)
system.mem_ctrls0.readPktSize::3                    0                       # Read request sizes (log2)
system.mem_ctrls0.readPktSize::4                    0                       # Read request sizes (log2)
system.mem_ctrls0.readPktSize::5                    0                       # Read request sizes (log2)
system.mem_ctrls0.readPktSize::6               651681                       # Read request sizes (log2)
system.mem_ctrls0.writePktSize::0                   0                       # Write request sizes (log2)
system.mem_ctrls0.writePktSize::1                   0                       # Write request sizes (log2)
system.mem_ctrls0.writePktSize::2                   0                       # Write request sizes (log2)
system.mem_ctrls0.writePktSize::3                   0                       # Write request sizes (log2)
system.mem_ctrls0.writePktSize::4                   0                       # Write request sizes (log2)
system.mem_ctrls0.writePktSize::5                   0                       # Write request sizes (log2)
system.mem_ctrls0.writePktSize::6              658131                       # Write request sizes (log2)
system.mem_ctrls0.rdQLenPdf::0                 526201                       # What read queue length does an incoming req see
system.mem_ctrls0.rdQLenPdf::1                      6                       # What read queue length does an incoming req see
system.mem_ctrls0.rdQLenPdf::2                      0                       # What read queue length does an incoming req see
system.mem_ctrls0.rdQLenPdf::3                      0                       # What read queue length does an incoming req see
system.mem_ctrls0.rdQLenPdf::4                      0                       # What read queue length does an incoming req see
system.mem_ctrls0.rdQLenPdf::5                      0                       # What read queue length does an incoming req see
system.mem_ctrls0.rdQLenPdf::6                      0                       # What read queue length does an incoming req see
system.mem_ctrls0.rdQLenPdf::7                      0                       # What read queue length does an incoming req see
system.mem_ctrls0.rdQLenPdf::8                      0                       # What read queue length does an incoming req see
system.mem_ctrls0.rdQLenPdf::9                      0                       # What read queue length does an incoming req see
system.mem_ctrls0.rdQLenPdf::10                     0                       # What read queue length does an incoming req see
system.mem_ctrls0.rdQLenPdf::11                     0                       # What read queue length does an incoming req see
system.mem_ctrls0.rdQLenPdf::12                     0                       # What read queue length does an incoming req see
system.mem_ctrls0.rdQLenPdf::13                     0                       # What read queue length does an incoming req see
system.mem_ctrls0.rdQLenPdf::14                     0                       # What read queue length does an incoming req see
system.mem_ctrls0.rdQLenPdf::15                     0                       # What read queue length does an incoming req see
system.mem_ctrls0.rdQLenPdf::16                     0                       # What read queue length does an incoming req see
system.mem_ctrls0.rdQLenPdf::17                     0                       # What read queue length does an incoming req see
system.mem_ctrls0.rdQLenPdf::18                     0                       # What read queue length does an incoming req see
system.mem_ctrls0.rdQLenPdf::19                     0                       # What read queue length does an incoming req see
system.mem_ctrls0.rdQLenPdf::20                     0                       # What read queue length does an incoming req see
system.mem_ctrls0.rdQLenPdf::21                     0                       # What read queue length does an incoming req see
system.mem_ctrls0.rdQLenPdf::22                     0                       # What read queue length does an incoming req see
system.mem_ctrls0.rdQLenPdf::23                     0                       # What read queue length does an incoming req see
system.mem_ctrls0.rdQLenPdf::24                     0                       # What read queue length does an incoming req see
system.mem_ctrls0.rdQLenPdf::25                     0                       # What read queue length does an incoming req see
system.mem_ctrls0.rdQLenPdf::26                     0                       # What read queue length does an incoming req see
system.mem_ctrls0.rdQLenPdf::27                     0                       # What read queue length does an incoming req see
system.mem_ctrls0.rdQLenPdf::28                     0                       # What read queue length does an incoming req see
system.mem_ctrls0.rdQLenPdf::29                     0                       # What read queue length does an incoming req see
system.mem_ctrls0.rdQLenPdf::30                     0                       # What read queue length does an incoming req see
system.mem_ctrls0.rdQLenPdf::31                     0                       # What read queue length does an incoming req see
system.mem_ctrls0.wrQLenPdf::0                      0                       # What write queue length does an incoming req see
system.mem_ctrls0.wrQLenPdf::1                      0                       # What write queue length does an incoming req see
system.mem_ctrls0.wrQLenPdf::2                      0                       # What write queue length does an incoming req see
system.mem_ctrls0.wrQLenPdf::3                      0                       # What write queue length does an incoming req see
system.mem_ctrls0.wrQLenPdf::4                      0                       # What write queue length does an incoming req see
system.mem_ctrls0.wrQLenPdf::5                      0                       # What write queue length does an incoming req see
system.mem_ctrls0.wrQLenPdf::6                      0                       # What write queue length does an incoming req see
system.mem_ctrls0.wrQLenPdf::7                      0                       # What write queue length does an incoming req see
system.mem_ctrls0.wrQLenPdf::8                      0                       # What write queue length does an incoming req see
system.mem_ctrls0.wrQLenPdf::9                      0                       # What write queue length does an incoming req see
system.mem_ctrls0.wrQLenPdf::10                     0                       # What write queue length does an incoming req see
system.mem_ctrls0.wrQLenPdf::11                     0                       # What write queue length does an incoming req see
system.mem_ctrls0.wrQLenPdf::12                     0                       # What write queue length does an incoming req see
system.mem_ctrls0.wrQLenPdf::13                     0                       # What write queue length does an incoming req see
system.mem_ctrls0.wrQLenPdf::14                     0                       # What write queue length does an incoming req see
system.mem_ctrls0.wrQLenPdf::15                  4025                       # What write queue length does an incoming req see
system.mem_ctrls0.wrQLenPdf::16                  4198                       # What write queue length does an incoming req see
system.mem_ctrls0.wrQLenPdf::17                 35809                       # What write queue length does an incoming req see
system.mem_ctrls0.wrQLenPdf::18                 36364                       # What write queue length does an incoming req see
system.mem_ctrls0.wrQLenPdf::19                 36438                       # What write queue length does an incoming req see
system.mem_ctrls0.wrQLenPdf::20                 36473                       # What write queue length does an incoming req see
system.mem_ctrls0.wrQLenPdf::21                 36466                       # What write queue length does an incoming req see
system.mem_ctrls0.wrQLenPdf::22                 36501                       # What write queue length does an incoming req see
system.mem_ctrls0.wrQLenPdf::23                 36559                       # What write queue length does an incoming req see
system.mem_ctrls0.wrQLenPdf::24                 36593                       # What write queue length does an incoming req see
system.mem_ctrls0.wrQLenPdf::25                 36648                       # What write queue length does an incoming req see
system.mem_ctrls0.wrQLenPdf::26                 36594                       # What write queue length does an incoming req see
system.mem_ctrls0.wrQLenPdf::27                 36638                       # What write queue length does an incoming req see
system.mem_ctrls0.wrQLenPdf::28                 36480                       # What write queue length does an incoming req see
system.mem_ctrls0.wrQLenPdf::29                 36402                       # What write queue length does an incoming req see
system.mem_ctrls0.wrQLenPdf::30                 36332                       # What write queue length does an incoming req see
system.mem_ctrls0.wrQLenPdf::31                 36292                       # What write queue length does an incoming req see
system.mem_ctrls0.wrQLenPdf::32                 36286                       # What write queue length does an incoming req see
system.mem_ctrls0.wrQLenPdf::33                   186                       # What write queue length does an incoming req see
system.mem_ctrls0.wrQLenPdf::34                    56                       # What write queue length does an incoming req see
system.mem_ctrls0.wrQLenPdf::35                    26                       # What write queue length does an incoming req see
system.mem_ctrls0.wrQLenPdf::36                    15                       # What write queue length does an incoming req see
system.mem_ctrls0.wrQLenPdf::37                    13                       # What write queue length does an incoming req see
system.mem_ctrls0.wrQLenPdf::38                    12                       # What write queue length does an incoming req see
system.mem_ctrls0.wrQLenPdf::39                    12                       # What write queue length does an incoming req see
system.mem_ctrls0.wrQLenPdf::40                    12                       # What write queue length does an incoming req see
system.mem_ctrls0.wrQLenPdf::41                    11                       # What write queue length does an incoming req see
system.mem_ctrls0.wrQLenPdf::42                    14                       # What write queue length does an incoming req see
system.mem_ctrls0.wrQLenPdf::43                    12                       # What write queue length does an incoming req see
system.mem_ctrls0.wrQLenPdf::44                    13                       # What write queue length does an incoming req see
system.mem_ctrls0.wrQLenPdf::45                    11                       # What write queue length does an incoming req see
system.mem_ctrls0.wrQLenPdf::46                     7                       # What write queue length does an incoming req see
system.mem_ctrls0.wrQLenPdf::47                     9                       # What write queue length does an incoming req see
system.mem_ctrls0.wrQLenPdf::48                     6                       # What write queue length does an incoming req see
system.mem_ctrls0.wrQLenPdf::49                     5                       # What write queue length does an incoming req see
system.mem_ctrls0.wrQLenPdf::50                     5                       # What write queue length does an incoming req see
system.mem_ctrls0.wrQLenPdf::51                     4                       # What write queue length does an incoming req see
system.mem_ctrls0.wrQLenPdf::52                     1                       # What write queue length does an incoming req see
system.mem_ctrls0.wrQLenPdf::53                     0                       # What write queue length does an incoming req see
system.mem_ctrls0.wrQLenPdf::54                     0                       # What write queue length does an incoming req see
system.mem_ctrls0.wrQLenPdf::55                     0                       # What write queue length does an incoming req see
system.mem_ctrls0.wrQLenPdf::56                     0                       # What write queue length does an incoming req see
system.mem_ctrls0.wrQLenPdf::57                     0                       # What write queue length does an incoming req see
system.mem_ctrls0.wrQLenPdf::58                     0                       # What write queue length does an incoming req see
system.mem_ctrls0.wrQLenPdf::59                     0                       # What write queue length does an incoming req see
system.mem_ctrls0.wrQLenPdf::60                     0                       # What write queue length does an incoming req see
system.mem_ctrls0.wrQLenPdf::61                     0                       # What write queue length does an incoming req see
system.mem_ctrls0.wrQLenPdf::62                     0                       # What write queue length does an incoming req see
system.mem_ctrls0.wrQLenPdf::63                     0                       # What write queue length does an incoming req see
system.mem_ctrls0.bytesPerActivate::samples       573938                       # Bytes accessed per row activation
system.mem_ctrls0.bytesPerActivate::mean   124.638856                       # Bytes accessed per row activation
system.mem_ctrls0.bytesPerActivate::gmean    97.042253                       # Bytes accessed per row activation
system.mem_ctrls0.bytesPerActivate::stdev   119.810543                       # Bytes accessed per row activation
system.mem_ctrls0.bytesPerActivate::0-127       363000     63.25%     63.25% # Bytes accessed per row activation
system.mem_ctrls0.bytesPerActivate::128-255       138061     24.06%     87.30% # Bytes accessed per row activation
system.mem_ctrls0.bytesPerActivate::256-383        42634      7.43%     94.73% # Bytes accessed per row activation
system.mem_ctrls0.bytesPerActivate::384-511        17017      2.96%     97.70% # Bytes accessed per row activation
system.mem_ctrls0.bytesPerActivate::512-639         6581      1.15%     98.84% # Bytes accessed per row activation
system.mem_ctrls0.bytesPerActivate::640-767         2834      0.49%     99.34% # Bytes accessed per row activation
system.mem_ctrls0.bytesPerActivate::768-895         1756      0.31%     99.64% # Bytes accessed per row activation
system.mem_ctrls0.bytesPerActivate::896-1023         1113      0.19%     99.84% # Bytes accessed per row activation
system.mem_ctrls0.bytesPerActivate::1024-1151          942      0.16%    100.00% # Bytes accessed per row activation
system.mem_ctrls0.bytesPerActivate::total       573938                       # Bytes accessed per row activation
system.mem_ctrls0.rdPerTurnAround::samples        36263                       # Reads before turning the bus around for writes
system.mem_ctrls0.rdPerTurnAround::mean     14.510713                       # Reads before turning the bus around for writes
system.mem_ctrls0.rdPerTurnAround::stdev     2.045640                       # Reads before turning the bus around for writes
system.mem_ctrls0.rdPerTurnAround::0               55      0.15%      0.15% # Reads before turning the bus around for writes
system.mem_ctrls0.rdPerTurnAround::1               53      0.15%      0.30% # Reads before turning the bus around for writes
system.mem_ctrls0.rdPerTurnAround::2               29      0.08%      0.38% # Reads before turning the bus around for writes
system.mem_ctrls0.rdPerTurnAround::3               31      0.09%      0.46% # Reads before turning the bus around for writes
system.mem_ctrls0.rdPerTurnAround::4               20      0.06%      0.52% # Reads before turning the bus around for writes
system.mem_ctrls0.rdPerTurnAround::5               15      0.04%      0.56% # Reads before turning the bus around for writes
system.mem_ctrls0.rdPerTurnAround::6               25      0.07%      0.63% # Reads before turning the bus around for writes
system.mem_ctrls0.rdPerTurnAround::7               64      0.18%      0.81% # Reads before turning the bus around for writes
system.mem_ctrls0.rdPerTurnAround::8              139      0.38%      1.19% # Reads before turning the bus around for writes
system.mem_ctrls0.rdPerTurnAround::9              280      0.77%      1.96% # Reads before turning the bus around for writes
system.mem_ctrls0.rdPerTurnAround::10             663      1.83%      3.79% # Reads before turning the bus around for writes
system.mem_ctrls0.rdPerTurnAround::11            1254      3.46%      7.25% # Reads before turning the bus around for writes
system.mem_ctrls0.rdPerTurnAround::12            2364      6.52%     13.77% # Reads before turning the bus around for writes
system.mem_ctrls0.rdPerTurnAround::13            3827     10.55%     24.32% # Reads before turning the bus around for writes
system.mem_ctrls0.rdPerTurnAround::14            5768     15.91%     40.23% # Reads before turning the bus around for writes
system.mem_ctrls0.rdPerTurnAround::15            6673     18.40%     58.63% # Reads before turning the bus around for writes
system.mem_ctrls0.rdPerTurnAround::16           13168     36.31%     94.94% # Reads before turning the bus around for writes
system.mem_ctrls0.rdPerTurnAround::17            1554      4.29%     99.23% # Reads before turning the bus around for writes
system.mem_ctrls0.rdPerTurnAround::18             237      0.65%     99.88% # Reads before turning the bus around for writes
system.mem_ctrls0.rdPerTurnAround::19              34      0.09%     99.97% # Reads before turning the bus around for writes
system.mem_ctrls0.rdPerTurnAround::20               8      0.02%     99.99% # Reads before turning the bus around for writes
system.mem_ctrls0.rdPerTurnAround::22               1      0.00%    100.00% # Reads before turning the bus around for writes
system.mem_ctrls0.rdPerTurnAround::23               1      0.00%    100.00% # Reads before turning the bus around for writes
system.mem_ctrls0.rdPerTurnAround::total        36263                       # Reads before turning the bus around for writes
system.mem_ctrls0.wrPerTurnAround::samples        36263                       # Writes before turning the bus around for reads
system.mem_ctrls0.wrPerTurnAround::mean     16.311888                       # Writes before turning the bus around for reads
system.mem_ctrls0.wrPerTurnAround::gmean    16.269744                       # Writes before turning the bus around for reads
system.mem_ctrls0.wrPerTurnAround::stdev     1.525513                       # Writes before turning the bus around for reads
system.mem_ctrls0.wrPerTurnAround::16-17        32169     88.71%     88.71% # Writes before turning the bus around for reads
system.mem_ctrls0.wrPerTurnAround::18-19         3882     10.71%     99.42% # Writes before turning the bus around for reads
system.mem_ctrls0.wrPerTurnAround::20-21           42      0.12%     99.53% # Writes before turning the bus around for reads
system.mem_ctrls0.wrPerTurnAround::22-23            7      0.02%     99.55% # Writes before turning the bus around for reads
system.mem_ctrls0.wrPerTurnAround::24-25           18      0.05%     99.60% # Writes before turning the bus around for reads
system.mem_ctrls0.wrPerTurnAround::26-27           11      0.03%     99.63% # Writes before turning the bus around for reads
system.mem_ctrls0.wrPerTurnAround::28-29           27      0.07%     99.70% # Writes before turning the bus around for reads
system.mem_ctrls0.wrPerTurnAround::30-31           19      0.05%     99.76% # Writes before turning the bus around for reads
system.mem_ctrls0.wrPerTurnAround::32-33           25      0.07%     99.83% # Writes before turning the bus around for reads
system.mem_ctrls0.wrPerTurnAround::34-35            7      0.02%     99.85% # Writes before turning the bus around for reads
system.mem_ctrls0.wrPerTurnAround::36-37           13      0.04%     99.88% # Writes before turning the bus around for reads
system.mem_ctrls0.wrPerTurnAround::38-39            4      0.01%     99.89% # Writes before turning the bus around for reads
system.mem_ctrls0.wrPerTurnAround::40-41           12      0.03%     99.93% # Writes before turning the bus around for reads
system.mem_ctrls0.wrPerTurnAround::42-43            2      0.01%     99.93% # Writes before turning the bus around for reads
system.mem_ctrls0.wrPerTurnAround::44-45            1      0.00%     99.93% # Writes before turning the bus around for reads
system.mem_ctrls0.wrPerTurnAround::48-49           12      0.03%     99.97% # Writes before turning the bus around for reads
system.mem_ctrls0.wrPerTurnAround::52-53            3      0.01%     99.98% # Writes before turning the bus around for reads
system.mem_ctrls0.wrPerTurnAround::54-55            3      0.01%     99.98% # Writes before turning the bus around for reads
system.mem_ctrls0.wrPerTurnAround::56-57            3      0.01%     99.99% # Writes before turning the bus around for reads
system.mem_ctrls0.wrPerTurnAround::60-61            1      0.00%     99.99% # Writes before turning the bus around for reads
system.mem_ctrls0.wrPerTurnAround::66-67            1      0.00%    100.00% # Writes before turning the bus around for reads
system.mem_ctrls0.wrPerTurnAround::70-71            1      0.00%    100.00% # Writes before turning the bus around for reads
system.mem_ctrls0.wrPerTurnAround::total        36263                       # Writes before turning the bus around for reads
system.mem_ctrls0.totQLat                 56489975000                       # Total ticks spent queuing
system.mem_ctrls0.totMemAccLat            66356356250                       # Total ticks spent from burst creation until serviced by the DRAM
system.mem_ctrls0.totBusLat                2631035000                       # Total ticks spent in databus transfers
system.mem_ctrls0.avgQLat                   107353.14                       # Average queueing delay per DRAM burst
system.mem_ctrls0.avgBusLat                   5000.00                       # Average bus latency per DRAM burst
system.mem_ctrls0.avgMemAccLat              126103.14                       # Average memory access latency per DRAM burst
system.mem_ctrls0.avgRdBW                        7.97                       # Average DRAM read bandwidth in MiByte/s
system.mem_ctrls0.avgWrBW                        8.96                       # Average achieved write bandwidth in MiByte/s
system.mem_ctrls0.avgRdBWSys                     9.87                       # Average system read bandwidth in MiByte/s
system.mem_ctrls0.avgWrBWSys                     9.97                       # Average system write bandwidth in MiByte/s
system.mem_ctrls0.peakBW                     12800.00                       # Theoretical peak bandwidth in MiByte/s
system.mem_ctrls0.busUtil                        0.13                       # Data bus utilization in percentage
system.mem_ctrls0.busUtilRead                    0.06                       # Data bus utilization in percentage for reads
system.mem_ctrls0.busUtilWrite                   0.07                       # Data bus utilization in percentage for writes
system.mem_ctrls0.avgRdQLen                      1.00                       # Average read queue length when enqueuing
system.mem_ctrls0.avgWrQLen                     25.42                       # Average write queue length when enqueuing
system.mem_ctrls0.readRowHits                  210009                       # Number of row buffer hits during reads
system.mem_ctrls0.writeRowHits                 333783                       # Number of row buffer hits during writes
system.mem_ctrls0.readRowHitRate                39.91                       # Row buffer hit rate for reads
system.mem_ctrls0.writeRowHitRate               56.43                       # Row buffer hit rate for writes
system.mem_ctrls0.avgGap                   3225587.95                       # Average gap between requests
system.mem_ctrls0.pageHitRate                   48.65                       # Row buffer hit rate, read and write combined
system.mem_ctrls0_0.actEnergy              3774932280                       # Energy for activate commands per rank (pJ)
system.mem_ctrls0_0.preEnergy              2006420295                       # Energy for precharge commands per rank (pJ)
system.mem_ctrls0_0.readEnergy             3675079380                       # Energy for read commands per rank (pJ)
system.mem_ctrls0_0.writeEnergy            3001228560                       # Energy for write commands per rank (pJ)
system.mem_ctrls0_0.refreshEnergy        146183519040.000031                       # Energy for refresh commands per rank (pJ)
system.mem_ctrls0_0.actBackEnergy         65772606090                       # Energy for active background per rank (pJ)
system.mem_ctrls0_0.preBackEnergy          8509807200                       # Energy for precharge background per rank (pJ)
system.mem_ctrls0_0.actPowerDownEnergy   369750186090                       # Energy for active power-down per rank (pJ)
system.mem_ctrls0_0.prePowerDownEnergy   197089237920                       # Energy for precharge power-down per rank (pJ)
system.mem_ctrls0_0.selfRefreshEnergy    1972443033900                       # Energy for self refresh per rank (pJ)
system.mem_ctrls0_0.totalEnergy          2772242775255                       # Total energy per rank (pJ)
system.mem_ctrls0_0.averagePower           288.946742                       # Core power per rank (mW)
system.mem_ctrls0_0.totalIdleTime        4094543270000                       # Total Idle time Per DRAM Rank
system.mem_ctrls0_0.memoryStateTime::IDLE  15633415500                       # Time in different power states
system.mem_ctrls0_0.memoryStateTime::REF  51936604000                       # Time in different power states
system.mem_ctrls0_0.memoryStateTime::SREF 3018722038500                       # Time in different power states
system.mem_ctrls0_0.memoryStateTime::PRE_PDN 454003879000                       # Time in different power states
system.mem_ctrls0_0.memoryStateTime::ACT  62800523750                       # Time in different power states
system.mem_ctrls0_0.memoryStateTime::ACT_PDN 621818282500                       # Time in different power states
system.mem_ctrls0_1.actEnergy              2590177800                       # Energy for activate commands per rank (pJ)
system.mem_ctrls0_1.preEnergy              1376704560                       # Energy for precharge commands per rank (pJ)
system.mem_ctrls0_1.readEnergy             2490689040                       # Energy for read commands per rank (pJ)
system.mem_ctrls0_1.writeEnergy            2008640340                       # Energy for write commands per rank (pJ)
system.mem_ctrls0_1.refreshEnergy        141007020960.000031                       # Energy for refresh commands per rank (pJ)
system.mem_ctrls0_1.actBackEnergy         69512374380                       # Energy for active background per rank (pJ)
system.mem_ctrls0_1.preBackEnergy          7860199680                       # Energy for precharge background per rank (pJ)
system.mem_ctrls0_1.actPowerDownEnergy   314531027970                       # Energy for active power-down per rank (pJ)
system.mem_ctrls0_1.prePowerDownEnergy   209173210560                       # Energy for precharge power-down per rank (pJ)
system.mem_ctrls0_1.selfRefreshEnergy    1993729884390                       # Energy for self refresh per rank (pJ)
system.mem_ctrls0_1.totalEnergy          2744324380890                       # Total energy per rank (pJ)
system.mem_ctrls0_1.averagePower           286.036849                       # Core power per rank (mW)
system.mem_ctrls0_1.totalIdleTime        4094525898250                       # Total Idle time Per DRAM Rank
system.mem_ctrls0_1.memoryStateTime::IDLE  13704792750                       # Time in different power states
system.mem_ctrls0_1.memoryStateTime::REF  49552296000                       # Time in different power states
system.mem_ctrls0_1.memoryStateTime::SREF 3099379526250                       # Time in different power states
system.mem_ctrls0_1.memoryStateTime::PRE_PDN 462871381250                       # Time in different power states
system.mem_ctrls0_1.memoryStateTime::ACT  67130685500                       # Time in different power states
system.mem_ctrls0_1.memoryStateTime::ACT_PDN 532278684250                       # Time in different power states
system.mem_ctrls1.pwrStateResidencyTicks::UNDEFINED 9594303630000                       # Cumulative time (in ticks) in various power states
system.mem_ctrls1.bytes_read::ruby.dir_cntrl1     36387520                       # Number of bytes read from this memory
system.mem_ctrls1.bytes_read::total          36387520                       # Number of bytes read from this memory
system.mem_ctrls1.bytes_written::ruby.dir_cntrl1     36805952                       # Number of bytes written to this memory
system.mem_ctrls1.bytes_written::total       36805952                       # Number of bytes written to this memory
system.mem_ctrls1.num_reads::ruby.dir_cntrl1       568555                       # Number of read requests responded to by this memory
system.mem_ctrls1.num_reads::total             568555                       # Number of read requests responded to by this memory
system.mem_ctrls1.num_writes::ruby.dir_cntrl1       575093                       # Number of write requests responded to by this memory
system.mem_ctrls1.num_writes::total            575093                       # Number of write requests responded to by this memory
system.mem_ctrls1.bw_read::ruby.dir_cntrl1      8612606                       # Total read bandwidth from this memory (bytes/s)
system.mem_ctrls1.bw_read::total              8612606                       # Total read bandwidth from this memory (bytes/s)
system.mem_ctrls1.bw_write::ruby.dir_cntrl1      8711645                       # Write bandwidth from this memory (bytes/s)
system.mem_ctrls1.bw_write::total             8711645                       # Write bandwidth from this memory (bytes/s)
system.mem_ctrls1.bw_total::ruby.dir_cntrl1     17324252                       # Total bandwidth to/from this memory (bytes/s)
system.mem_ctrls1.bw_total::total            17324252                       # Total bandwidth to/from this memory (bytes/s)
system.mem_ctrls1.readReqs                     568555                       # Number of read requests accepted
system.mem_ctrls1.writeReqs                    575093                       # Number of write requests accepted
system.mem_ctrls1.readBursts                   568555                       # Number of DRAM read bursts, including those serviced by the write queue
system.mem_ctrls1.writeBursts                  575093                       # Number of DRAM write bursts, including those merged in the write queue
system.mem_ctrls1.bytesReadDRAM              31018240                       # Total number of bytes read from DRAM
system.mem_ctrls1.bytesReadWrQ                5369280                       # Total number of bytes read from write queue
system.mem_ctrls1.bytesWritten               34109120                       # Total number of bytes written to DRAM
system.mem_ctrls1.bytesReadSys               36387520                       # Total read bytes from the system interface side
system.mem_ctrls1.bytesWrittenSys            36805952                       # Total written bytes from the system interface side
system.mem_ctrls1.servicedByWrQ                 83895                       # Number of DRAM read bursts serviced by the write queue
system.mem_ctrls1.mergedWrBursts                42128                       # Number of DRAM write bursts merged with an existing one
system.mem_ctrls1.neitherReadNorWriteReqs            0                       # Number of requests that are neither read nor write
system.mem_ctrls1.perBankRdBursts::0            31983                       # Per bank write bursts
system.mem_ctrls1.perBankRdBursts::1            31311                       # Per bank write bursts
system.mem_ctrls1.perBankRdBursts::2            37565                       # Per bank write bursts
system.mem_ctrls1.perBankRdBursts::3            46280                       # Per bank write bursts
system.mem_ctrls1.perBankRdBursts::4            43598                       # Per bank write bursts
system.mem_ctrls1.perBankRdBursts::5            33964                       # Per bank write bursts
system.mem_ctrls1.perBankRdBursts::6            29531                       # Per bank write bursts
system.mem_ctrls1.perBankRdBursts::7            28534                       # Per bank write bursts
system.mem_ctrls1.perBankRdBursts::8            19349                       # Per bank write bursts
system.mem_ctrls1.perBankRdBursts::9            21553                       # Per bank write bursts
system.mem_ctrls1.perBankRdBursts::10           22829                       # Per bank write bursts
system.mem_ctrls1.perBankRdBursts::11           21294                       # Per bank write bursts
system.mem_ctrls1.perBankRdBursts::12           20240                       # Per bank write bursts
system.mem_ctrls1.perBankRdBursts::13           33573                       # Per bank write bursts
system.mem_ctrls1.perBankRdBursts::14           32112                       # Per bank write bursts
system.mem_ctrls1.perBankRdBursts::15           30944                       # Per bank write bursts
system.mem_ctrls1.perBankWrBursts::0            34324                       # Per bank write bursts
system.mem_ctrls1.perBankWrBursts::1            34191                       # Per bank write bursts
system.mem_ctrls1.perBankWrBursts::2            41529                       # Per bank write bursts
system.mem_ctrls1.perBankWrBursts::3            51362                       # Per bank write bursts
system.mem_ctrls1.perBankWrBursts::4            47218                       # Per bank write bursts
system.mem_ctrls1.perBankWrBursts::5            39795                       # Per bank write bursts
system.mem_ctrls1.perBankWrBursts::6            32557                       # Per bank write bursts
system.mem_ctrls1.perBankWrBursts::7            31203                       # Per bank write bursts
system.mem_ctrls1.perBankWrBursts::8            20530                       # Per bank write bursts
system.mem_ctrls1.perBankWrBursts::9            23342                       # Per bank write bursts
system.mem_ctrls1.perBankWrBursts::10           27610                       # Per bank write bursts
system.mem_ctrls1.perBankWrBursts::11           22672                       # Per bank write bursts
system.mem_ctrls1.perBankWrBursts::12           21501                       # Per bank write bursts
system.mem_ctrls1.perBankWrBursts::13           37038                       # Per bank write bursts
system.mem_ctrls1.perBankWrBursts::14           34399                       # Per bank write bursts
system.mem_ctrls1.perBankWrBursts::15           33684                       # Per bank write bursts
system.mem_ctrls1.numRdRetry                        0                       # Number of times read queue was full causing retry
system.mem_ctrls1.numWrRetry                        5                       # Number of times write queue was full causing retry
system.mem_ctrls1.totGap                 4224913524000                       # Total gap between requests
system.mem_ctrls1.readPktSize::0                    0                       # Read request sizes (log2)
system.mem_ctrls1.readPktSize::1                    0                       # Read request sizes (log2)
system.mem_ctrls1.readPktSize::2                    0                       # Read request sizes (log2)
system.mem_ctrls1.readPktSize::3                    0                       # Read request sizes (log2)
system.mem_ctrls1.readPktSize::4                    0                       # Read request sizes (log2)
system.mem_ctrls1.readPktSize::5                    0                       # Read request sizes (log2)
system.mem_ctrls1.readPktSize::6               568555                       # Read request sizes (log2)
system.mem_ctrls1.writePktSize::0                   0                       # Write request sizes (log2)
system.mem_ctrls1.writePktSize::1                   0                       # Write request sizes (log2)
system.mem_ctrls1.writePktSize::2                   0                       # Write request sizes (log2)
system.mem_ctrls1.writePktSize::3                   0                       # Write request sizes (log2)
system.mem_ctrls1.writePktSize::4                   0                       # Write request sizes (log2)
system.mem_ctrls1.writePktSize::5                   0                       # Write request sizes (log2)
system.mem_ctrls1.writePktSize::6              575093                       # Write request sizes (log2)
system.mem_ctrls1.rdQLenPdf::0                 484660                       # What read queue length does an incoming req see
system.mem_ctrls1.rdQLenPdf::1                      0                       # What read queue length does an incoming req see
system.mem_ctrls1.rdQLenPdf::2                      0                       # What read queue length does an incoming req see
system.mem_ctrls1.rdQLenPdf::3                      0                       # What read queue length does an incoming req see
system.mem_ctrls1.rdQLenPdf::4                      0                       # What read queue length does an incoming req see
system.mem_ctrls1.rdQLenPdf::5                      0                       # What read queue length does an incoming req see
system.mem_ctrls1.rdQLenPdf::6                      0                       # What read queue length does an incoming req see
system.mem_ctrls1.rdQLenPdf::7                      0                       # What read queue length does an incoming req see
system.mem_ctrls1.rdQLenPdf::8                      0                       # What read queue length does an incoming req see
system.mem_ctrls1.rdQLenPdf::9                      0                       # What read queue length does an incoming req see
system.mem_ctrls1.rdQLenPdf::10                     0                       # What read queue length does an incoming req see
system.mem_ctrls1.rdQLenPdf::11                     0                       # What read queue length does an incoming req see
system.mem_ctrls1.rdQLenPdf::12                     0                       # What read queue length does an incoming req see
system.mem_ctrls1.rdQLenPdf::13                     0                       # What read queue length does an incoming req see
system.mem_ctrls1.rdQLenPdf::14                     0                       # What read queue length does an incoming req see
system.mem_ctrls1.rdQLenPdf::15                     0                       # What read queue length does an incoming req see
system.mem_ctrls1.rdQLenPdf::16                     0                       # What read queue length does an incoming req see
system.mem_ctrls1.rdQLenPdf::17                     0                       # What read queue length does an incoming req see
system.mem_ctrls1.rdQLenPdf::18                     0                       # What read queue length does an incoming req see
system.mem_ctrls1.rdQLenPdf::19                     0                       # What read queue length does an incoming req see
system.mem_ctrls1.rdQLenPdf::20                     0                       # What read queue length does an incoming req see
system.mem_ctrls1.rdQLenPdf::21                     0                       # What read queue length does an incoming req see
system.mem_ctrls1.rdQLenPdf::22                     0                       # What read queue length does an incoming req see
system.mem_ctrls1.rdQLenPdf::23                     0                       # What read queue length does an incoming req see
system.mem_ctrls1.rdQLenPdf::24                     0                       # What read queue length does an incoming req see
system.mem_ctrls1.rdQLenPdf::25                     0                       # What read queue length does an incoming req see
system.mem_ctrls1.rdQLenPdf::26                     0                       # What read queue length does an incoming req see
system.mem_ctrls1.rdQLenPdf::27                     0                       # What read queue length does an incoming req see
system.mem_ctrls1.rdQLenPdf::28                     0                       # What read queue length does an incoming req see
system.mem_ctrls1.rdQLenPdf::29                     0                       # What read queue length does an incoming req see
system.mem_ctrls1.rdQLenPdf::30                     0                       # What read queue length does an incoming req see
system.mem_ctrls1.rdQLenPdf::31                     0                       # What read queue length does an incoming req see
system.mem_ctrls1.wrQLenPdf::0                      0                       # What write queue length does an incoming req see
system.mem_ctrls1.wrQLenPdf::1                      0                       # What write queue length does an incoming req see
system.mem_ctrls1.wrQLenPdf::2                      0                       # What write queue length does an incoming req see
system.mem_ctrls1.wrQLenPdf::3                      0                       # What write queue length does an incoming req see
system.mem_ctrls1.wrQLenPdf::4                      0                       # What write queue length does an incoming req see
system.mem_ctrls1.wrQLenPdf::5                      0                       # What write queue length does an incoming req see
system.mem_ctrls1.wrQLenPdf::6                      0                       # What write queue length does an incoming req see
system.mem_ctrls1.wrQLenPdf::7                      0                       # What write queue length does an incoming req see
system.mem_ctrls1.wrQLenPdf::8                      0                       # What write queue length does an incoming req see
system.mem_ctrls1.wrQLenPdf::9                      0                       # What write queue length does an incoming req see
system.mem_ctrls1.wrQLenPdf::10                     0                       # What write queue length does an incoming req see
system.mem_ctrls1.wrQLenPdf::11                     0                       # What write queue length does an incoming req see
system.mem_ctrls1.wrQLenPdf::12                     0                       # What write queue length does an incoming req see
system.mem_ctrls1.wrQLenPdf::13                     0                       # What write queue length does an incoming req see
system.mem_ctrls1.wrQLenPdf::14                     0                       # What write queue length does an incoming req see
system.mem_ctrls1.wrQLenPdf::15                  3125                       # What write queue length does an incoming req see
system.mem_ctrls1.wrQLenPdf::16                  3270                       # What write queue length does an incoming req see
system.mem_ctrls1.wrQLenPdf::17                 32637                       # What write queue length does an incoming req see
system.mem_ctrls1.wrQLenPdf::18                 32887                       # What write queue length does an incoming req see
system.mem_ctrls1.wrQLenPdf::19                 32919                       # What write queue length does an incoming req see
system.mem_ctrls1.wrQLenPdf::20                 32932                       # What write queue length does an incoming req see
system.mem_ctrls1.wrQLenPdf::21                 32965                       # What write queue length does an incoming req see
system.mem_ctrls1.wrQLenPdf::22                 32947                       # What write queue length does an incoming req see
system.mem_ctrls1.wrQLenPdf::23                 32957                       # What write queue length does an incoming req see
system.mem_ctrls1.wrQLenPdf::24                 32992                       # What write queue length does an incoming req see
system.mem_ctrls1.wrQLenPdf::25                 33039                       # What write queue length does an incoming req see
system.mem_ctrls1.wrQLenPdf::26                 32967                       # What write queue length does an incoming req see
system.mem_ctrls1.wrQLenPdf::27                 32946                       # What write queue length does an incoming req see
system.mem_ctrls1.wrQLenPdf::28                 32890                       # What write queue length does an incoming req see
system.mem_ctrls1.wrQLenPdf::29                 32833                       # What write queue length does an incoming req see
system.mem_ctrls1.wrQLenPdf::30                 32784                       # What write queue length does an incoming req see
system.mem_ctrls1.wrQLenPdf::31                 32747                       # What write queue length does an incoming req see
system.mem_ctrls1.wrQLenPdf::32                 32744                       # What write queue length does an incoming req see
system.mem_ctrls1.wrQLenPdf::33                    88                       # What write queue length does an incoming req see
system.mem_ctrls1.wrQLenPdf::34                    24                       # What write queue length does an incoming req see
system.mem_ctrls1.wrQLenPdf::35                    21                       # What write queue length does an incoming req see
system.mem_ctrls1.wrQLenPdf::36                    20                       # What write queue length does an incoming req see
system.mem_ctrls1.wrQLenPdf::37                    18                       # What write queue length does an incoming req see
system.mem_ctrls1.wrQLenPdf::38                    21                       # What write queue length does an incoming req see
system.mem_ctrls1.wrQLenPdf::39                    17                       # What write queue length does an incoming req see
system.mem_ctrls1.wrQLenPdf::40                    16                       # What write queue length does an incoming req see
system.mem_ctrls1.wrQLenPdf::41                    16                       # What write queue length does an incoming req see
system.mem_ctrls1.wrQLenPdf::42                    13                       # What write queue length does an incoming req see
system.mem_ctrls1.wrQLenPdf::43                    12                       # What write queue length does an incoming req see
system.mem_ctrls1.wrQLenPdf::44                    12                       # What write queue length does an incoming req see
system.mem_ctrls1.wrQLenPdf::45                    10                       # What write queue length does an incoming req see
system.mem_ctrls1.wrQLenPdf::46                     7                       # What write queue length does an incoming req see
system.mem_ctrls1.wrQLenPdf::47                     6                       # What write queue length does an incoming req see
system.mem_ctrls1.wrQLenPdf::48                     6                       # What write queue length does an incoming req see
system.mem_ctrls1.wrQLenPdf::49                     5                       # What write queue length does an incoming req see
system.mem_ctrls1.wrQLenPdf::50                     4                       # What write queue length does an incoming req see
system.mem_ctrls1.wrQLenPdf::51                     3                       # What write queue length does an incoming req see
system.mem_ctrls1.wrQLenPdf::52                     3                       # What write queue length does an incoming req see
system.mem_ctrls1.wrQLenPdf::53                     4                       # What write queue length does an incoming req see
system.mem_ctrls1.wrQLenPdf::54                     3                       # What write queue length does an incoming req see
system.mem_ctrls1.wrQLenPdf::55                     4                       # What write queue length does an incoming req see
system.mem_ctrls1.wrQLenPdf::56                     6                       # What write queue length does an incoming req see
system.mem_ctrls1.wrQLenPdf::57                     5                       # What write queue length does an incoming req see
system.mem_ctrls1.wrQLenPdf::58                     5                       # What write queue length does an incoming req see
system.mem_ctrls1.wrQLenPdf::59                     7                       # What write queue length does an incoming req see
system.mem_ctrls1.wrQLenPdf::60                     7                       # What write queue length does an incoming req see
system.mem_ctrls1.wrQLenPdf::61                     6                       # What write queue length does an incoming req see
system.mem_ctrls1.wrQLenPdf::62                     5                       # What write queue length does an incoming req see
system.mem_ctrls1.wrQLenPdf::63                    10                       # What write queue length does an incoming req see
system.mem_ctrls1.bytesPerActivate::samples       502499                       # Bytes accessed per row activation
system.mem_ctrls1.bytesPerActivate::mean   129.608600                       # Bytes accessed per row activation
system.mem_ctrls1.bytesPerActivate::gmean    99.478577                       # Bytes accessed per row activation
system.mem_ctrls1.bytesPerActivate::stdev   127.205669                       # Bytes accessed per row activation
system.mem_ctrls1.bytesPerActivate::0-127       310274     61.75%     61.75% # Bytes accessed per row activation
system.mem_ctrls1.bytesPerActivate::128-255       122718     24.42%     86.17% # Bytes accessed per row activation
system.mem_ctrls1.bytesPerActivate::256-383        39381      7.84%     94.00% # Bytes accessed per row activation
system.mem_ctrls1.bytesPerActivate::384-511        16539      3.29%     97.30% # Bytes accessed per row activation
system.mem_ctrls1.bytesPerActivate::512-639         6633      1.32%     98.62% # Bytes accessed per row activation
system.mem_ctrls1.bytesPerActivate::640-767         2824      0.56%     99.18% # Bytes accessed per row activation
system.mem_ctrls1.bytesPerActivate::768-895         1802      0.36%     99.54% # Bytes accessed per row activation
system.mem_ctrls1.bytesPerActivate::896-1023         1231      0.24%     99.78% # Bytes accessed per row activation
system.mem_ctrls1.bytesPerActivate::1024-1151         1097      0.22%    100.00% # Bytes accessed per row activation
system.mem_ctrls1.bytesPerActivate::total       502499                       # Bytes accessed per row activation
system.mem_ctrls1.rdPerTurnAround::samples        32730                       # Reads before turning the bus around for writes
system.mem_ctrls1.rdPerTurnAround::mean     14.807577                       # Reads before turning the bus around for writes
system.mem_ctrls1.rdPerTurnAround::stdev     1.957008                       # Reads before turning the bus around for writes
system.mem_ctrls1.rdPerTurnAround::0               63      0.19%      0.19% # Reads before turning the bus around for writes
system.mem_ctrls1.rdPerTurnAround::1               71      0.22%      0.41% # Reads before turning the bus around for writes
system.mem_ctrls1.rdPerTurnAround::2               26      0.08%      0.49% # Reads before turning the bus around for writes
system.mem_ctrls1.rdPerTurnAround::3               16      0.05%      0.54% # Reads before turning the bus around for writes
system.mem_ctrls1.rdPerTurnAround::4               10      0.03%      0.57% # Reads before turning the bus around for writes
system.mem_ctrls1.rdPerTurnAround::5               13      0.04%      0.61% # Reads before turning the bus around for writes
system.mem_ctrls1.rdPerTurnAround::6               25      0.08%      0.68% # Reads before turning the bus around for writes
system.mem_ctrls1.rdPerTurnAround::7               58      0.18%      0.86% # Reads before turning the bus around for writes
system.mem_ctrls1.rdPerTurnAround::8              101      0.31%      1.17% # Reads before turning the bus around for writes
system.mem_ctrls1.rdPerTurnAround::9              210      0.64%      1.81% # Reads before turning the bus around for writes
system.mem_ctrls1.rdPerTurnAround::10             362      1.11%      2.92% # Reads before turning the bus around for writes
system.mem_ctrls1.rdPerTurnAround::11             696      2.13%      5.04% # Reads before turning the bus around for writes
system.mem_ctrls1.rdPerTurnAround::12            1502      4.59%      9.63% # Reads before turning the bus around for writes
system.mem_ctrls1.rdPerTurnAround::13            2692      8.22%     17.86% # Reads before turning the bus around for writes
system.mem_ctrls1.rdPerTurnAround::14            4546     13.89%     31.75% # Reads before turning the bus around for writes
system.mem_ctrls1.rdPerTurnAround::15            5887     17.99%     49.73% # Reads before turning the bus around for writes
system.mem_ctrls1.rdPerTurnAround::16           15056     46.00%     95.73% # Reads before turning the bus around for writes
system.mem_ctrls1.rdPerTurnAround::17            1188      3.63%     99.36% # Reads before turning the bus around for writes
system.mem_ctrls1.rdPerTurnAround::18             176      0.54%     99.90% # Reads before turning the bus around for writes
system.mem_ctrls1.rdPerTurnAround::19              27      0.08%     99.98% # Reads before turning the bus around for writes
system.mem_ctrls1.rdPerTurnAround::20               3      0.01%     99.99% # Reads before turning the bus around for writes
system.mem_ctrls1.rdPerTurnAround::22               2      0.01%    100.00% # Reads before turning the bus around for writes
system.mem_ctrls1.rdPerTurnAround::total        32730                       # Reads before turning the bus around for writes
system.mem_ctrls1.wrPerTurnAround::samples        32730                       # Writes before turning the bus around for reads
system.mem_ctrls1.wrPerTurnAround::mean     16.283379                       # Writes before turning the bus around for reads
system.mem_ctrls1.wrPerTurnAround::gmean    16.239565                       # Writes before turning the bus around for reads
system.mem_ctrls1.wrPerTurnAround::stdev     1.634240                       # Writes before turning the bus around for reads
system.mem_ctrls1.wrPerTurnAround::16-17        29570     90.35%     90.35% # Writes before turning the bus around for reads
system.mem_ctrls1.wrPerTurnAround::18-19         2972      9.08%     99.43% # Writes before turning the bus around for reads
system.mem_ctrls1.wrPerTurnAround::20-21           11      0.03%     99.46% # Writes before turning the bus around for reads
system.mem_ctrls1.wrPerTurnAround::22-23           11      0.03%     99.49% # Writes before turning the bus around for reads
system.mem_ctrls1.wrPerTurnAround::24-25           17      0.05%     99.54% # Writes before turning the bus around for reads
system.mem_ctrls1.wrPerTurnAround::26-27           23      0.07%     99.62% # Writes before turning the bus around for reads
system.mem_ctrls1.wrPerTurnAround::28-29           21      0.06%     99.68% # Writes before turning the bus around for reads
system.mem_ctrls1.wrPerTurnAround::30-31           20      0.06%     99.74% # Writes before turning the bus around for reads
system.mem_ctrls1.wrPerTurnAround::32-33           29      0.09%     99.83% # Writes before turning the bus around for reads
system.mem_ctrls1.wrPerTurnAround::34-35           11      0.03%     99.86% # Writes before turning the bus around for reads
system.mem_ctrls1.wrPerTurnAround::36-37            6      0.02%     99.88% # Writes before turning the bus around for reads
system.mem_ctrls1.wrPerTurnAround::38-39            1      0.00%     99.88% # Writes before turning the bus around for reads
system.mem_ctrls1.wrPerTurnAround::40-41            9      0.03%     99.91% # Writes before turning the bus around for reads
system.mem_ctrls1.wrPerTurnAround::42-43            3      0.01%     99.92% # Writes before turning the bus around for reads
system.mem_ctrls1.wrPerTurnAround::44-45            3      0.01%     99.93% # Writes before turning the bus around for reads
system.mem_ctrls1.wrPerTurnAround::48-49           13      0.04%     99.97% # Writes before turning the bus around for reads
system.mem_ctrls1.wrPerTurnAround::52-53            1      0.00%     99.97% # Writes before turning the bus around for reads
system.mem_ctrls1.wrPerTurnAround::54-55            1      0.00%     99.98% # Writes before turning the bus around for reads
system.mem_ctrls1.wrPerTurnAround::56-57            5      0.02%     99.99% # Writes before turning the bus around for reads
system.mem_ctrls1.wrPerTurnAround::58-59            1      0.00%     99.99% # Writes before turning the bus around for reads
system.mem_ctrls1.wrPerTurnAround::64-65            1      0.00%    100.00% # Writes before turning the bus around for reads
system.mem_ctrls1.wrPerTurnAround::126-127            1      0.00%    100.00% # Writes before turning the bus around for reads
system.mem_ctrls1.wrPerTurnAround::total        32730                       # Writes before turning the bus around for reads
system.mem_ctrls1.totQLat                 54176050000                       # Total ticks spent queuing
system.mem_ctrls1.totMemAccLat            63263425000                       # Total ticks spent from burst creation until serviced by the DRAM
system.mem_ctrls1.totBusLat                2423300000                       # Total ticks spent in databus transfers
system.mem_ctrls1.avgQLat                   111781.56                       # Average queueing delay per DRAM burst
system.mem_ctrls1.avgBusLat                   5000.00                       # Average bus latency per DRAM burst
system.mem_ctrls1.avgMemAccLat              130531.56                       # Average memory access latency per DRAM burst
system.mem_ctrls1.avgRdBW                        7.34                       # Average DRAM read bandwidth in MiByte/s
system.mem_ctrls1.avgWrBW                        8.07                       # Average achieved write bandwidth in MiByte/s
system.mem_ctrls1.avgRdBWSys                     8.61                       # Average system read bandwidth in MiByte/s
system.mem_ctrls1.avgWrBWSys                     8.71                       # Average system write bandwidth in MiByte/s
system.mem_ctrls1.peakBW                     12800.00                       # Theoretical peak bandwidth in MiByte/s
system.mem_ctrls1.busUtil                        0.12                       # Data bus utilization in percentage
system.mem_ctrls1.busUtilRead                    0.06                       # Data bus utilization in percentage for reads
system.mem_ctrls1.busUtilWrite                   0.06                       # Data bus utilization in percentage for writes
system.mem_ctrls1.avgRdQLen                      1.00                       # Average read queue length when enqueuing
system.mem_ctrls1.avgWrQLen                     25.39                       # Average write queue length when enqueuing
system.mem_ctrls1.readRowHits                  199161                       # Number of row buffer hits during reads
system.mem_ctrls1.writeRowHits                 315955                       # Number of row buffer hits during writes
system.mem_ctrls1.readRowHitRate                41.09                       # Row buffer hit rate for reads
system.mem_ctrls1.writeRowHitRate               59.28                       # Row buffer hit rate for writes
system.mem_ctrls1.avgGap                   3694242.92                       # Average gap between requests
system.mem_ctrls1.pageHitRate                   50.62                       # Row buffer hit rate, read and write combined
system.mem_ctrls1_0.actEnergy              3433483200                       # Energy for activate commands per rank (pJ)
system.mem_ctrls1_0.preEnergy              1824935805                       # Energy for precharge commands per rank (pJ)
system.mem_ctrls1_0.readEnergy             3402552720                       # Energy for read commands per rank (pJ)
system.mem_ctrls1_0.writeEnergy            2728259100                       # Energy for write commands per rank (pJ)
system.mem_ctrls1_0.refreshEnergy        142004581680.000031                       # Energy for refresh commands per rank (pJ)
system.mem_ctrls1_0.actBackEnergy         62021219490                       # Energy for active background per rank (pJ)
system.mem_ctrls1_0.preBackEnergy          8369704800                       # Energy for precharge background per rank (pJ)
system.mem_ctrls1_0.actPowerDownEnergy   358866390630                       # Energy for active power-down per rank (pJ)
system.mem_ctrls1_0.prePowerDownEnergy   192722530080                       # Energy for precharge power-down per rank (pJ)
system.mem_ctrls1_0.selfRefreshEnergy    1982267998605                       # Energy for self refresh per rank (pJ)
system.mem_ctrls1_0.totalEnergy          2757675834510                       # Total energy per rank (pJ)
system.mem_ctrls1_0.averagePower           287.428451                       # Core power per rank (mW)
system.mem_ctrls1_0.totalIdleTime        4101683617000                       # Total Idle time Per DRAM Rank
system.mem_ctrls1_0.memoryStateTime::IDLE  15467616000                       # Time in different power states
system.mem_ctrls1_0.memoryStateTime::REF  50170666000                       # Time in different power states
system.mem_ctrls1_0.memoryStateTime::SREF 3061611980000                       # Time in different power states
system.mem_ctrls1_0.memoryStateTime::PRE_PDN 441175650000                       # Time in different power states
system.mem_ctrls1_0.memoryStateTime::ACT  57592073500                       # Time in different power states
system.mem_ctrls1_0.memoryStateTime::ACT_PDN 598896012500                       # Time in different power states
system.mem_ctrls1_1.actEnergy              2343240900                       # Energy for activate commands per rank (pJ)
system.mem_ctrls1_1.preEnergy              1245458280                       # Energy for precharge commands per rank (pJ)
system.mem_ctrls1_1.readEnergy             2301336240                       # Energy for read commands per rank (pJ)
system.mem_ctrls1_1.writeEnergy            1837998540                       # Energy for write commands per rank (pJ)
system.mem_ctrls1_1.refreshEnergy        137112661920.000031                       # Energy for refresh commands per rank (pJ)
system.mem_ctrls1_1.actBackEnergy         65719927830                       # Energy for active background per rank (pJ)
system.mem_ctrls1_1.preBackEnergy          7694423520                       # Energy for precharge background per rank (pJ)
system.mem_ctrls1_1.actPowerDownEnergy   301733940300                       # Energy for active power-down per rank (pJ)
system.mem_ctrls1_1.prePowerDownEnergy   206459441760                       # Energy for precharge power-down per rank (pJ)
system.mem_ctrls1_1.selfRefreshEnergy    2003845740480                       # Energy for self refresh per rank (pJ)
system.mem_ctrls1_1.totalEnergy          2730340305960                       # Total energy per rank (pJ)
system.mem_ctrls1_1.averagePower           284.579309                       # Core power per rank (mW)
system.mem_ctrls1_1.totalIdleTime        4102307254500                       # Total Idle time Per DRAM Rank
system.mem_ctrls1_1.memoryStateTime::IDLE  13378980750                       # Time in different power states
system.mem_ctrls1_1.memoryStateTime::REF  47841262000                       # Time in different power states
system.mem_ctrls1_1.memoryStateTime::SREF 3140814699250                       # Time in different power states
system.mem_ctrls1_1.memoryStateTime::PRE_PDN 448823464500                       # Time in different power states
system.mem_ctrls1_1.memoryStateTime::ACT  61385038250                       # Time in different power states
system.mem_ctrls1_1.memoryStateTime::ACT_PDN 512670663250                       # Time in different power states
system.mem_ctrls2.pwrStateResidencyTicks::UNDEFINED 9594303630000                       # Cumulative time (in ticks) in various power states
system.mem_ctrls2.bytes_read::ruby.dir_cntrl2     36649920                       # Number of bytes read from this memory
system.mem_ctrls2.bytes_read::total          36649920                       # Number of bytes read from this memory
system.mem_ctrls2.bytes_written::ruby.dir_cntrl2     37068352                       # Number of bytes written to this memory
system.mem_ctrls2.bytes_written::total       37068352                       # Number of bytes written to this memory
system.mem_ctrls2.num_reads::ruby.dir_cntrl2       572655                       # Number of read requests responded to by this memory
system.mem_ctrls2.num_reads::total             572655                       # Number of read requests responded to by this memory
system.mem_ctrls2.num_writes::ruby.dir_cntrl2       579193                       # Number of write requests responded to by this memory
system.mem_ctrls2.num_writes::total            579193                       # Number of write requests responded to by this memory
system.mem_ctrls2.bw_read::ruby.dir_cntrl2      8674714                       # Total read bandwidth from this memory (bytes/s)
system.mem_ctrls2.bw_read::total              8674714                       # Total read bandwidth from this memory (bytes/s)
system.mem_ctrls2.bw_write::ruby.dir_cntrl2      8773753                       # Write bandwidth from this memory (bytes/s)
system.mem_ctrls2.bw_write::total             8773753                       # Write bandwidth from this memory (bytes/s)
system.mem_ctrls2.bw_total::ruby.dir_cntrl2     17448467                       # Total bandwidth to/from this memory (bytes/s)
system.mem_ctrls2.bw_total::total            17448467                       # Total bandwidth to/from this memory (bytes/s)
system.mem_ctrls2.readReqs                     572655                       # Number of read requests accepted
system.mem_ctrls2.writeReqs                    579193                       # Number of write requests accepted
system.mem_ctrls2.readBursts                   572655                       # Number of DRAM read bursts, including those serviced by the write queue
system.mem_ctrls2.writeBursts                  579193                       # Number of DRAM write bursts, including those merged in the write queue
system.mem_ctrls2.bytesReadDRAM              31386112                       # Total number of bytes read from DRAM
system.mem_ctrls2.bytesReadWrQ                5263808                       # Total number of bytes read from write queue
system.mem_ctrls2.bytesWritten               34662720                       # Total number of bytes written to DRAM
system.mem_ctrls2.bytesReadSys               36649920                       # Total read bytes from the system interface side
system.mem_ctrls2.bytesWrittenSys            37068352                       # Total written bytes from the system interface side
system.mem_ctrls2.servicedByWrQ                 82247                       # Number of DRAM read bursts serviced by the write queue
system.mem_ctrls2.mergedWrBursts                37598                       # Number of DRAM write bursts merged with an existing one
system.mem_ctrls2.neitherReadNorWriteReqs            0                       # Number of requests that are neither read nor write
system.mem_ctrls2.perBankRdBursts::0            31362                       # Per bank write bursts
system.mem_ctrls2.perBankRdBursts::1            32064                       # Per bank write bursts
system.mem_ctrls2.perBankRdBursts::2            38607                       # Per bank write bursts
system.mem_ctrls2.perBankRdBursts::3            46954                       # Per bank write bursts
system.mem_ctrls2.perBankRdBursts::4            41932                       # Per bank write bursts
system.mem_ctrls2.perBankRdBursts::5            37101                       # Per bank write bursts
system.mem_ctrls2.perBankRdBursts::6            26957                       # Per bank write bursts
system.mem_ctrls2.perBankRdBursts::7            27723                       # Per bank write bursts
system.mem_ctrls2.perBankRdBursts::8            19805                       # Per bank write bursts
system.mem_ctrls2.perBankRdBursts::9            21612                       # Per bank write bursts
system.mem_ctrls2.perBankRdBursts::10           24409                       # Per bank write bursts
system.mem_ctrls2.perBankRdBursts::11           21881                       # Per bank write bursts
system.mem_ctrls2.perBankRdBursts::12           22822                       # Per bank write bursts
system.mem_ctrls2.perBankRdBursts::13           33126                       # Per bank write bursts
system.mem_ctrls2.perBankRdBursts::14           32420                       # Per bank write bursts
system.mem_ctrls2.perBankRdBursts::15           31633                       # Per bank write bursts
system.mem_ctrls2.perBankWrBursts::0            34284                       # Per bank write bursts
system.mem_ctrls2.perBankWrBursts::1            37128                       # Per bank write bursts
system.mem_ctrls2.perBankWrBursts::2            42981                       # Per bank write bursts
system.mem_ctrls2.perBankWrBursts::3            52764                       # Per bank write bursts
system.mem_ctrls2.perBankWrBursts::4            45357                       # Per bank write bursts
system.mem_ctrls2.perBankWrBursts::5            44486                       # Per bank write bursts
system.mem_ctrls2.perBankWrBursts::6            29595                       # Per bank write bursts
system.mem_ctrls2.perBankWrBursts::7            30242                       # Per bank write bursts
system.mem_ctrls2.perBankWrBursts::8            21017                       # Per bank write bursts
system.mem_ctrls2.perBankWrBursts::9            24072                       # Per bank write bursts
system.mem_ctrls2.perBankWrBursts::10           27168                       # Per bank write bursts
system.mem_ctrls2.perBankWrBursts::11           23091                       # Per bank write bursts
system.mem_ctrls2.perBankWrBursts::12           24266                       # Per bank write bursts
system.mem_ctrls2.perBankWrBursts::13           35374                       # Per bank write bursts
system.mem_ctrls2.perBankWrBursts::14           35055                       # Per bank write bursts
system.mem_ctrls2.perBankWrBursts::15           34725                       # Per bank write bursts
[...]
system.ruby.IFETCH.Directory.miss_type_mach_latency_hist_seqr::samples       850519                      
system.ruby.IFETCH.Directory.miss_type_mach_latency_hist_seqr::mean   152.324926                      
system.ruby.IFETCH.Directory.miss_type_mach_latency_hist_seqr::gmean   104.804823                      
system.ruby.IFETCH.Directory.miss_type_mach_latency_hist_seqr::stdev   206.886550                      
system.ruby.IFETCH.Directory.miss_type_mach_latency_hist_seqr |      777291     91.39%     91.39% |       38808      4.56%     95.95% |        6971      0.82%     96.77% |         440      0.05%     96.82% |       25784      3.03%     99.86% |        1210      0.14%    100.00% |          15      0.00%    100.00% |           0      0.00%    100.00% |           0      0.00%    100.00% |           0      0.00%    100.00%
system.ruby.IFETCH.Directory.miss_type_mach_latency_hist_seqr::total       850519                      
system.ruby.RMW_Read.Directory.miss_type_mach_latency_hist_seqr::bucket_size          256                      
system.ruby.RMW_Read.Directory.miss_type_mach_latency_hist_seqr::max_bucket         2559                      
system.ruby.RMW_Read.Directory.miss_type_mach_latency_hist_seqr::samples        39569                      
system.ruby.RMW_Read.Directory.miss_type_mach_latency_hist_seqr::mean   181.105386                      
system.ruby.RMW_Read.Directory.miss_type_mach_latency_hist_seqr::gmean   110.522615                      
system.ruby.RMW_Read.Directory.miss_type_mach_latency_hist_seqr::stdev   268.296468                      
system.ruby.RMW_Read.Directory.miss_type_mach_latency_hist_seqr |       35467     89.63%     89.63% |        1448      3.66%     93.29% |         259      0.65%     93.95% |          32      0.08%     94.03% |        2249      5.68%     99.71% |         113      0.29%    100.00% |           1      0.00%    100.00% |           0      0.00%    100.00% |           0      0.00%    100.00% |           0      0.00%    100.00%
system.ruby.RMW_Read.Directory.miss_type_mach_latency_hist_seqr::total        39569                      
system.ruby.Locked_RMW_Read.Directory.miss_type_mach_latency_hist_seqr::bucket_size          256                      
system.ruby.Locked_RMW_Read.Directory.miss_type_mach_latency_hist_seqr::max_bucket         2559                      
system.ruby.Locked_RMW_Read.Directory.miss_type_mach_latency_hist_seqr::samples        23297                      
system.ruby.Locked_RMW_Read.Directory.miss_type_mach_latency_hist_seqr::mean   561.176546                      
system.ruby.Locked_RMW_Read.Directory.miss_type_mach_latency_hist_seqr::gmean   261.702786                      
system.ruby.Locked_RMW_Read.Directory.miss_type_mach_latency_hist_seqr::stdev   539.929014                      
system.ruby.Locked_RMW_Read.Directory.miss_type_mach_latency_hist_seqr |       13076     56.13%     56.13% |         447      1.92%     58.05% |          98      0.42%     58.47% |           5      0.02%     58.49% |        9188     39.44%     97.93% |         482      2.07%    100.00% |           1      0.00%    100.00% |           0      0.00%    100.00% |           0      0.00%    100.00% |           0      0.00%    100.00%
system.ruby.Locked_RMW_Read.Directory.miss_type_mach_latency_hist_seqr::total        23297                      
system.ruby.Directory_Controller.GETX    |      651593     13.98%     13.98% |      568555     12.20%     26.17% |      572655     12.28%     38.45% |      579327     12.43%     50.88% |      576094     12.36%     63.24% |      578657     12.41%     75.65% |      557373     11.96%     87.60% |      577886     12.40%    100.00%
system.ruby.Directory_Controller.GETX::total      4662140                      
system.ruby.Directory_Controller.PUTX    |      651593     13.98%     13.98% |      568555     12.20%     26.17% |      572655     12.28%     38.45% |      579327     12.43%     50.88% |      576094     12.36%     63.24% |      578657     12.41%     75.65% |      557373     11.96%     87.60% |      577886     12.40%    100.00%
system.ruby.Directory_Controller.PUTX::total      4662140                      
system.ruby.Directory_Controller.DMA_READ |         269    100.00%    100.00% |           0      0.00%    100.00% |           0      0.00%    100.00% |           0      0.00%    100.00% |           0      0.00%    100.00% |           0      0.00%    100.00% |           0      0.00%    100.00% |           0      0.00%    100.00%
system.ruby.Directory_Controller.DMA_READ::total          269                      
system.ruby.Directory_Controller.DMA_WRITE |        6538     12.50%     12.50% |        6538     12.50%     25.00% |        6538     12.50%     37.50% |        6538     12.50%     50.00% |        6538     12.50%     62.50% |        6538     12.50%     75.00% |        6538     12.50%     87.50% |        6538     12.50%    100.00%
system.ruby.Directory_Controller.DMA_WRITE::total        52304                      
system.ruby.Directory_Controller.Memory_Data |      651681     13.98%     13.98% |      568555     12.19%     26.17% |      572655     12.28%     38.46% |      579327     12.43%     50.88% |      576094     12.36%     63.24% |      578657     12.41%     75.65% |      557373     11.96%     87.60% |      577886     12.40%    100.00%
system.ruby.Directory_Controller.Memory_Data::total      4662228                      
system.ruby.Directory_Controller.Memory_Ack |      658131     13.96%     13.96% |      575093     12.20%     26.16% |      579193     12.29%     38.44% |      585865     12.43%     50.87% |      582632     12.36%     63.23% |      585195     12.41%     75.64% |      563911     11.96%     87.60% |      584424     12.40%    100.00%
system.ruby.Directory_Controller.Memory_Ack::total      4714444                      
system.ruby.Directory_Controller.I.GETX  |      651593     13.98%     13.98% |      568555     12.20%     26.17% |      572655     12.28%     38.45% |      579327     12.43%     50.88% |      576094     12.36%     63.24% |      578657     12.41%     75.65% |      557373     11.96%     87.60% |      577886     12.40%    100.00%
system.ruby.Directory_Controller.I.GETX::total      4662140                      
system.ruby.Directory_Controller.I.DMA_READ |          88    100.00%    100.00% |           0      0.00%    100.00% |           0      0.00%    100.00% |           0      0.00%    100.00% |           0      0.00%    100.00% |           0      0.00%    100.00% |           0      0.00%    100.00% |           0      0.00%    100.00%
system.ruby.Directory_Controller.I.DMA_READ::total           88                      
system.ruby.Directory_Controller.I.DMA_WRITE |        6538     12.50%     12.50% |        6538     12.50%     25.00% |        6538     12.50%     37.50% |        6538     12.50%     50.00% |        6538     12.50%     62.50% |        6538     12.50%     75.00% |        6538     12.50%     87.50% |        6538     12.50%    100.00%
system.ruby.Directory_Controller.I.DMA_WRITE::total        52304                      
system.ruby.Directory_Controller.M.PUTX  |      651412     13.97%     13.97% |      568555     12.20%     26.17% |      572655     12.28%     38.45% |      579327     12.43%     50.88% |      576094     12.36%     63.24% |      578657     12.41%     75.65% |      557373     11.96%     87.60% |      577886     12.40%    100.00%
system.ruby.Directory_Controller.M.PUTX::total      4661959                      
system.ruby.Directory_Controller.M.DMA_READ |         181    100.00%    100.00% |           0      0.00%    100.00% |           0      0.00%    100.00% |           0      0.00%    100.00% |           0      0.00%    100.00% |           0      0.00%    100.00% |           0      0.00%    100.00% |           0      0.00%    100.00%
system.ruby.Directory_Controller.M.DMA_READ::total          181                      
system.ruby.Directory_Controller.M_DRD.PUTX |         181    100.00%    100.00% |           0      0.00%    100.00% |           0      0.00%    100.00% |           0      0.00%    100.00% |           0      0.00%    100.00% |           0      0.00%    100.00% |           0      0.00%    100.00% |           0      0.00%    100.00%
system.ruby.Directory_Controller.M_DRD.PUTX::total          181                      
system.ruby.Directory_Controller.M_DRDI.Memory_Ack |         181    100.00%    100.00% |           0      0.00%    100.00% |           0      0.00%    100.00% |           0      0.00%    100.00% |           0      0.00%    100.00% |           0      0.00%    100.00% |           0      0.00%    100.00% |           0      0.00%    100.00%
system.ruby.Directory_Controller.M_DRDI.Memory_Ack::total          181                      
system.ruby.Directory_Controller.IM.Memory_Data |      651593     13.98%     13.98% |      568555     12.20%     26.17% |      572655     12.28%     38.45% |      579327     12.43%     50.88% |      576094     12.36%     63.24% |      578657     12.41%     75.65% |      557373     11.96%     87.60% |      577886     12.40%    100.00%
system.ruby.Directory_Controller.IM.Memory_Data::total      4662140                      
system.ruby.Directory_Controller.MI.Memory_Ack |      651412     13.97%     13.97% |      568555     12.20%     26.17% |      572655     12.28%     38.45% |      579327     12.43%     50.88% |      576094     12.36%     63.24% |      578657     12.41%     75.65% |      557373     11.96%     87.60% |      577886     12.40%    100.00%
system.ruby.Directory_Controller.MI.Memory_Ack::total      4661959                      
system.ruby.Directory_Controller.ID.Memory_Data |          88    100.00%    100.00% |           0      0.00%    100.00% |           0      0.00%    100.00% |           0      0.00%    100.00% |           0      0.00%    100.00% |           0      0.00%    100.00% |           0      0.00%    100.00% |           0      0.00%    100.00%
system.ruby.Directory_Controller.ID.Memory_Data::total           88                      
system.ruby.Directory_Controller.ID_W.Memory_Ack |        6538     12.50%     12.50% |        6538     12.50%     25.00% |        6538     12.50%     37.50% |        6538     12.50%     50.00% |        6538     12.50%     62.50% |        6538     12.50%     75.00% |        6538     12.50%     87.50% |        6538     12.50%    100.00%
system.ruby.Directory_Controller.ID_W.Memory_Ack::total        52304                      
system.ruby.DMA_Controller.ReadRequest   |         269    100.00%    100.00% |           0      0.00%    100.00%
system.ruby.DMA_Controller.ReadRequest::total          269                      
system.ruby.DMA_Controller.WriteRequest  |       52304    100.00%    100.00% |           0      0.00%    100.00%
system.ruby.DMA_Controller.WriteRequest::total        52304                      
system.ruby.DMA_Controller.Data          |         269    100.00%    100.00% |           0      0.00%    100.00%
system.ruby.DMA_Controller.Data::total            269                      
system.ruby.DMA_Controller.Ack           |       52304    100.00%    100.00% |           0      0.00%    100.00%
system.ruby.DMA_Controller.Ack::total           52304                      
system.ruby.DMA_Controller.READY.ReadRequest |         269    100.00%    100.00% |           0      0.00%    100.00%
system.ruby.DMA_Controller.READY.ReadRequest::total          269                      
system.ruby.DMA_Controller.READY.WriteRequest |       52304    100.00%    100.00% |           0      0.00%    100.00%
system.ruby.DMA_Controller.READY.WriteRequest::total        52304                      
system.ruby.DMA_Controller.BUSY_RD.Data  |         269    100.00%    100.00% |           0      0.00%    100.00%
system.ruby.DMA_Controller.BUSY_RD.Data::total          269                      
system.ruby.DMA_Controller.BUSY_WR.Ack   |       52304    100.00%    100.00% |           0      0.00%    100.00%
system.ruby.DMA_Controller.BUSY_WR.Ack::total        52304                      
system.ruby.L1Cache_Controller.Load      |   526685223    100.00%    100.00% |           0      0.00%    100.00% |           0      0.00%    100.00% |           0      0.00%    100.00% |           0      0.00%    100.00% |           0      0.00%    100.00% |           0      0.00%    100.00% |           0      0.00%    100.00%
system.ruby.L1Cache_Controller.Load::total    526685223                      
system.ruby.L1Cache_Controller.Ifetch    |18446744072286306304    100.00%    100.00% |           0      0.00%    100.00% |           0      0.00%    100.00% |           0      0.00%    100.00% |           0      0.00%    100.00% |           0      0.00%    100.00% |           0      0.00%    100.00% |           0      0.00%    100.00%
system.ruby.L1Cache_Controller.Ifetch::total 18446744072286306304                      
system.ruby.L1Cache_Controller.Store     |   170380653    100.00%    100.00% |           0      0.00%    100.00% |           0      0.00%    100.00% |           0      0.00%    100.00% |           0      0.00%    100.00% |           0      0.00%    100.00% |           0      0.00%    100.00% |           0      0.00%    100.00%
system.ruby.L1Cache_Controller.Store::total    170380653                      
system.ruby.L1Cache_Controller.Data      |     4662140    100.00%    100.00% |           0      0.00%    100.00% |           0      0.00%    100.00% |           0      0.00%    100.00% |           0      0.00%    100.00% |           0      0.00%    100.00% |           0      0.00%    100.00% |           0      0.00%    100.00%
system.ruby.L1Cache_Controller.Data::total      4662140                      
system.ruby.L1Cache_Controller.Inv       |         362    100.00%    100.00% |           0      0.00%    100.00% |           0      0.00%    100.00% |           0      0.00%    100.00% |           0      0.00%    100.00% |           0      0.00%    100.00% |           0      0.00%    100.00% |           0      0.00%    100.00%
system.ruby.L1Cache_Controller.Inv::total          362                      
system.ruby.L1Cache_Controller.Replacement |     4661959    100.00%    100.00% |           0      0.00%    100.00% |           0      0.00%    100.00% |           0      0.00%    100.00% |           0      0.00%    100.00% |           0      0.00%    100.00% |           0      0.00%    100.00% |           0      0.00%    100.00%
system.ruby.L1Cache_Controller.Replacement::total      4661959                      
system.ruby.L1Cache_Controller.Writeback_Ack |     4662140    100.00%    100.00% |           0      0.00%    100.00% |           0      0.00%    100.00% |           0      0.00%    100.00% |           0      0.00%    100.00% |           0      0.00%    100.00% |           0      0.00%    100.00% |           0      0.00%    100.00%
system.ruby.L1Cache_Controller.Writeback_Ack::total      4662140                      
system.ruby.L1Cache_Controller.I.Load    |     2658108    100.00%    100.00% |           0      0.00%    100.00% |           0      0.00%    100.00% |           0      0.00%    100.00% |           0      0.00%    100.00% |           0      0.00%    100.00% |           0      0.00%    100.00% |           0      0.00%    100.00%
system.ruby.L1Cache_Controller.I.Load::total      2658108                      
system.ruby.L1Cache_Controller.I.Ifetch  |      850519    100.00%    100.00% |           0      0.00%    100.00% |           0      0.00%    100.00% |           0      0.00%    100.00% |           0      0.00%    100.00% |           0      0.00%    100.00% |           0      0.00%    100.00% |           0      0.00%    100.00%
system.ruby.L1Cache_Controller.I.Ifetch::total       850519                      
system.ruby.L1Cache_Controller.I.Store   |     1153513    100.00%    100.00% |           0      0.00%    100.00% |           0      0.00%    100.00% |           0      0.00%    100.00% |           0      0.00%    100.00% |           0      0.00%    100.00% |           0      0.00%    100.00% |           0      0.00%    100.00%
system.ruby.L1Cache_Controller.I.Store::total      1153513                      
system.ruby.L1Cache_Controller.M.Load    |   524027115    100.00%    100.00% |           0      0.00%    100.00% |           0      0.00%    100.00% |           0      0.00%    100.00% |           0      0.00%    100.00% |           0      0.00%    100.00% |           0      0.00%    100.00% |           0      0.00%    100.00%
system.ruby.L1Cache_Controller.M.Load::total    524027115                      
system.ruby.L1Cache_Controller.M.Ifetch  |18446744072285456384    100.00%    100.00% |           0      0.00%    100.00% |           0      0.00%    100.00% |           0      0.00%    100.00% |           0      0.00%    100.00% |           0      0.00%    100.00% |           0      0.00%    100.00% |           0      0.00%    100.00%
system.ruby.L1Cache_Controller.M.Ifetch::total 18446744072285456384                      
system.ruby.L1Cache_Controller.M.Store   |   169227140    100.00%    100.00% |           0      0.00%    100.00% |           0      0.00%    100.00% |           0      0.00%    100.00% |           0      0.00%    100.00% |           0      0.00%    100.00% |           0      0.00%    100.00% |           0      0.00%    100.00%
system.ruby.L1Cache_Controller.M.Store::total    169227140                      
system.ruby.L1Cache_Controller.M.Inv     |         181    100.00%    100.00% |           0      0.00%    100.00% |           0      0.00%    100.00% |           0      0.00%    100.00% |           0      0.00%    100.00% |           0      0.00%    100.00% |           0      0.00%    100.00% |           0      0.00%    100.00%
system.ruby.L1Cache_Controller.M.Inv::total          181                      
system.ruby.L1Cache_Controller.M.Replacement |     4661959    100.00%    100.00% |           0      0.00%    100.00% |           0      0.00%    100.00% |           0      0.00%    100.00% |           0      0.00%    100.00% |           0      0.00%    100.00% |           0      0.00%    100.00% |           0      0.00%    100.00%
system.ruby.L1Cache_Controller.M.Replacement::total      4661959                      
system.ruby.L1Cache_Controller.MI.Inv    |         181    100.00%    100.00% |           0      0.00%    100.00% |           0      0.00%    100.00% |           0      0.00%    100.00% |           0      0.00%    100.00% |           0      0.00%    100.00% |           0      0.00%    100.00% |           0      0.00%    100.00%
system.ruby.L1Cache_Controller.MI.Inv::total          181                      
system.ruby.L1Cache_Controller.MI.Writeback_Ack |     4662140    100.00%    100.00% |           0      0.00%    100.00% |           0      0.00%    100.00% |           0      0.00%    100.00% |           0      0.00%    100.00% |           0      0.00%    100.00% |           0      0.00%    100.00% |           0      0.00%    100.00%
system.ruby.L1Cache_Controller.MI.Writeback_Ack::total      4662140                      
system.ruby.L1Cache_Controller.IS.Data   |     3508627    100.00%    100.00% |           0      0.00%    100.00% |           0      0.00%    100.00% |           0      0.00%    100.00% |           0      0.00%    100.00% |           0      0.00%    100.00% |           0      0.00%    100.00% |           0      0.00%    100.00%
system.ruby.L1Cache_Controller.IS.Data::total      3508627                      
system.ruby.L1Cache_Controller.IM.Data   |     1153513    100.00%    100.00% |           0      0.00%    100.00% |           0      0.00%    100.00% |           0      0.00%    100.00% |           0      0.00%    100.00% |           0      0.00%    100.00% |           0      0.00%    100.00% |           0      0.00%    100.00%
system.ruby.L1Cache_Controller.IM.Data::total      1153513                      

---------- End Simulation Statistics   ----------
