
---------- Begin Simulation Statistics ----------
sim_seconds                                  0.520607                       # Number of seconds simulated
sim_ticks                                520606754000                       # Number of ticks simulated
final_tick                               5890013956000                       # Number of ticks from beginning of simulation (restored from checkpoints and never reset)
sim_freq                                 1000000000000                       # Frequency of simulated ticks
host_inst_rate                                 569707                       # Simulator instruction rate (inst/s)
host_op_rate                                  1042384                       # Simulator op (including micro ops) rate (op/s)
host_tick_rate                              988644968                       # Simulator tick rate (ticks/s)
host_mem_usage                                2008336                       # Number of bytes of host memory used
host_seconds                                   526.59                       # Real time elapsed on the host
sim_insts                                   300000000                       # Number of instructions simulated
sim_ops                                     548904775                       # Number of ops (including micro ops) simulated
system.voltage_domain.voltage                       1                       # Voltage in Volts
system.clk_domain.clock                          1000                       # Clock period in ticks
system.mem_ctrls0.pwrStateResidencyTicks::UNDEFINED 5890013956000                       # Cumulative time (in ticks) in various power states
system.mem_ctrls0.bytes_read::ruby.dir_cntrl0     27084288                       # Number of bytes read from this memory
system.mem_ctrls0.bytes_read::total          27084288                       # Number of bytes read from this memory
system.mem_ctrls0.bytes_written::ruby.dir_cntrl0     27729792                       # Number of bytes written to this memory
system.mem_ctrls0.bytes_written::total       27729792                       # Number of bytes written to this memory
system.mem_ctrls0.num_reads::ruby.dir_cntrl0       423192                       # Number of read requests responded to by this memory
system.mem_ctrls0.num_reads::total             423192                       # Number of read requests responded to by this memory
system.mem_ctrls0.num_writes::ruby.dir_cntrl0       433278                       # Number of write requests responded to by this memory
system.mem_ctrls0.num_writes::total            433278                       # Number of write requests responded to by this memory
system.mem_ctrls0.bw_read::ruby.dir_cntrl0     52024465                       # Total read bandwidth from this memory (bytes/s)
system.mem_ctrls0.bw_read::total             52024465                       # Total read bandwidth from this memory (bytes/s)
system.mem_ctrls0.bw_write::ruby.dir_cntrl0     53264372                       # Write bandwidth from this memory (bytes/s)
system.mem_ctrls0.bw_write::total            53264372                       # Write bandwidth from this memory (bytes/s)
system.mem_ctrls0.bw_total::ruby.dir_cntrl0    105288838                       # Total bandwidth to/from this memory (bytes/s)
system.mem_ctrls0.bw_total::total           105288838                       # Total bandwidth to/from this memory (bytes/s)
system.mem_ctrls0.readReqs                     423192                       # Number of read requests accepted
system.mem_ctrls0.writeReqs                    433278                       # Number of write requests accepted
system.mem_ctrls0.readBursts                   423192                       # Number of DRAM read bursts, including those serviced by the write queue
system.mem_ctrls0.writeBursts                  433278                       # Number of DRAM write bursts, including those merged in the write queue
system.mem_ctrls0.bytesReadDRAM              19317120                       # Total number of bytes read from DRAM
system.mem_ctrls0.bytesReadWrQ                7767168                       # Total number of bytes read from write queue
system.mem_ctrls0.bytesWritten               24301568                       # Total number of bytes written to DRAM
system.mem_ctrls0.bytesReadSys               27084288                       # Total read bytes from the system interface side
system.mem_ctrls0.bytesWrittenSys            27729792                       # Total written bytes from the system interface side
system.mem_ctrls0.servicedByWrQ                121362                       # Number of DRAM read bursts serviced by the write queue
system.mem_ctrls0.mergedWrBursts                53574                       # Number of DRAM write bursts merged with an existing one
system.mem_ctrls0.neitherReadNorWriteReqs            0                       # Number of requests that are neither read nor write
system.mem_ctrls0.perBankRdBursts::0            19767                       # Per bank write bursts
system.mem_ctrls0.perBankRdBursts::1            21899                       # Per bank write bursts
system.mem_ctrls0.perBankRdBursts::2            20354                       # Per bank write bursts
system.mem_ctrls0.perBankRdBursts::3            16652                       # Per bank write bursts
system.mem_ctrls0.perBankRdBursts::4            20855                       # Per bank write bursts
system.mem_ctrls0.perBankRdBursts::5            25791                       # Per bank write bursts
system.mem_ctrls0.perBankRdBursts::6            24784                       # Per bank write bursts
system.mem_ctrls0.perBankRdBursts::7            17569                       # Per bank write bursts
system.mem_ctrls0.perBankRdBursts::8            19019                       # Per bank write bursts
system.mem_ctrls0.perBankRdBursts::9            11580                       # Per bank write bursts
system.mem_ctrls0.perBankRdBursts::10           10997                       # Per bank write bursts
system.mem_ctrls0.perBankRdBursts::11           10024                       # Per bank write bursts
system.mem_ctrls0.perBankRdBursts::12           18571                       # Per bank write bursts
system.mem_ctrls0.perBankRdBursts::13           25113                       # Per bank write bursts
system.mem_ctrls0.perBankRdBursts::14           17449                       # Per bank write bursts
system.mem_ctrls0.perBankRdBursts::15           21406                       # Per bank write bursts
system.mem_ctrls0.perBankWrBursts::0            23574                       # Per bank write bursts
system.mem_ctrls0.perBankWrBursts::1            27131                       # Per bank write bursts
system.mem_ctrls0.perBankWrBursts::2            27147                       # Per bank write bursts
system.mem_ctrls0.perBankWrBursts::3            21078                       # Per bank write bursts
system.mem_ctrls0.perBankWrBursts::4            25758                       # Per bank write bursts
system.mem_ctrls0.perBankWrBursts::5            33115                       # Per bank write bursts
system.mem_ctrls0.perBankWrBursts::6            32993                       # Per bank write bursts
system.mem_ctrls0.perBankWrBursts::7            21312                       # Per bank write bursts
system.mem_ctrls0.perBankWrBursts::8            25238                       # Per bank write bursts
system.mem_ctrls0.perBankWrBursts::9            13911                       # Per bank write bursts
system.mem_ctrls0.perBankWrBursts::10           14981                       # Per bank write bursts
system.mem_ctrls0.perBankWrBursts::11           11951                       # Per bank write bursts
system.mem_ctrls0.perBankWrBursts::12           22189                       # Per bank write bursts
system.mem_ctrls0.perBankWrBursts::13           30676                       # Per bank write bursts
system.mem_ctrls0.perBankWrBursts::14           20587                       # Per bank write bursts
system.mem_ctrls0.perBankWrBursts::15           28071                       # Per bank write bursts
system.mem_ctrls0.numRdRetry                        0                       # Number of times read queue was full causing retry
system.mem_ctrls0.numWrRetry                        0                       # Number of times write queue was full causing retry
system.mem_ctrls0.totGap                 520607586500                       # Total gap between requests
system.mem_ctrls0.readPktSize::0                    0                       # Read request sizes (log2)
system.mem_ctrls0.readPktSize::1                    0                       # Read request sizes (log2)
system.mem_ctrls0.readPktSize::2                    0                       # Read request sizes (log2)
system.mem_ctrls0.readPktSize::3                    0                       # Read request sizes (log2)
system.mem_ctrls0.readPktSize::4                    0                       # Read request sizes (log2)
system.mem_ctrls0.readPktSize::5                    0                       # Read request sizes (log2)
system.mem_ctrls0.readPktSize::6               423192                       # Read request sizes (log2)
system.mem_ctrls0.writePktSize::0                   0                       # Write request sizes (log2)
system.mem_ctrls0.writePktSize::1                   0                       # Write request sizes (log2)
system.mem_ctrls0.writePktSize::2                   0                       # Write request sizes (log2)
system.mem_ctrls0.writePktSize::3                   0                       # Write request sizes (log2)
system.mem_ctrls0.writePktSize::4                   0                       # Write request sizes (log2)
system.mem_ctrls0.writePktSize::5                   0                       # Write request sizes (log2)
system.mem_ctrls0.writePktSize::6              433278                       # Write request sizes (log2)
system.mem_ctrls0.rdQLenPdf::0                 301811                       # What read queue length does an incoming req see
system.mem_ctrls0.rdQLenPdf::1                     19                       # What read queue length does an incoming req see
system.mem_ctrls0.rdQLenPdf::2                      0                       # What read queue length does an incoming req see
system.mem_ctrls0.rdQLenPdf::3                      0                       # What read queue length does an incoming req see
system.mem_ctrls0.rdQLenPdf::4                      0                       # What read queue length does an incoming req see
system.mem_ctrls0.rdQLenPdf::5                      0                       # What read queue length does an incoming req see
system.mem_ctrls0.rdQLenPdf::6                      0                       # What read queue length does an incoming req see
system.mem_ctrls0.rdQLenPdf::7                      0                       # What read queue length does an incoming req see
system.mem_ctrls0.rdQLenPdf::8                      0                       # What read queue length does an incoming req see
system.mem_ctrls0.rdQLenPdf::9                      0                       # What read queue length does an incoming req see
system.mem_ctrls0.rdQLenPdf::10                     0                       # What read queue length does an incoming req see
system.mem_ctrls0.rdQLenPdf::11                     0                       # What read queue length does an incoming req see
system.mem_ctrls0.rdQLenPdf::12                     0                       # What read queue length does an incoming req see
system.mem_ctrls0.rdQLenPdf::13                     0                       # What read queue length does an incoming req see
system.mem_ctrls0.rdQLenPdf::14                     0                       # What read queue length does an incoming req see
system.mem_ctrls0.rdQLenPdf::15                     0                       # What read queue length does an incoming req see
system.mem_ctrls0.rdQLenPdf::16                     0                       # What read queue length does an incoming req see
system.mem_ctrls0.rdQLenPdf::17                     0                       # What read queue length does an incoming req see
system.mem_ctrls0.rdQLenPdf::18                     0                       # What read queue length does an incoming req see
system.mem_ctrls0.rdQLenPdf::19                     0                       # What read queue length does an incoming req see
system.mem_ctrls0.rdQLenPdf::20                     0                       # What read queue length does an incoming req see
system.mem_ctrls0.rdQLenPdf::21                     0                       # What read queue length does an incoming req see
system.mem_ctrls0.rdQLenPdf::22                     0                       # What read queue length does an incoming req see
system.mem_ctrls0.rdQLenPdf::23                     0                       # What read queue length does an incoming req see
system.mem_ctrls0.rdQLenPdf::24                     0                       # What read queue length does an incoming req see
system.mem_ctrls0.rdQLenPdf::25                     0                       # What read queue length does an incoming req see
system.mem_ctrls0.rdQLenPdf::26                     0                       # What read queue length does an incoming req see
system.mem_ctrls0.rdQLenPdf::27                     0                       # What read queue length does an incoming req see
system.mem_ctrls0.rdQLenPdf::28                     0                       # What read queue length does an incoming req see
system.mem_ctrls0.rdQLenPdf::29                     0                       # What read queue length does an incoming req see
system.mem_ctrls0.rdQLenPdf::30                     0                       # What read queue length does an incoming req see
system.mem_ctrls0.rdQLenPdf::31                     0                       # What read queue length does an incoming req see
system.mem_ctrls0.wrQLenPdf::0                      0                       # What write queue length does an incoming req see
system.mem_ctrls0.wrQLenPdf::1                      0                       # What write queue length does an incoming req see
system.mem_ctrls0.wrQLenPdf::2                      0                       # What write queue length does an incoming req see
system.mem_ctrls0.wrQLenPdf::3                      0                       # What write queue length does an incoming req see
system.mem_ctrls0.wrQLenPdf::4                      0                       # What write queue length does an incoming req see
system.mem_ctrls0.wrQLenPdf::5                      0                       # What write queue length does an incoming req see
system.mem_ctrls0.wrQLenPdf::6                      0                       # What write queue length does an incoming req see
system.mem_ctrls0.wrQLenPdf::7                      0                       # What write queue length does an incoming req see
system.mem_ctrls0.wrQLenPdf::8                      0                       # What write queue length does an incoming req see
system.mem_ctrls0.wrQLenPdf::9                      0                       # What write queue length does an incoming req see
system.mem_ctrls0.wrQLenPdf::10                     0                       # What write queue length does an incoming req see
system.mem_ctrls0.wrQLenPdf::11                     0                       # What write queue length does an incoming req see
system.mem_ctrls0.wrQLenPdf::12                     0                       # What write queue length does an incoming req see
system.mem_ctrls0.wrQLenPdf::13                     0                       # What write queue length does an incoming req see
system.mem_ctrls0.wrQLenPdf::14                     0                       # What write queue length does an incoming req see
system.mem_ctrls0.wrQLenPdf::15                  4992                       # What write queue length does an incoming req see
system.mem_ctrls0.wrQLenPdf::16                  5235                       # What write queue length does an incoming req see
system.mem_ctrls0.wrQLenPdf::17                 22448                       # What write queue length does an incoming req see
system.mem_ctrls0.wrQLenPdf::18                 22939                       # What write queue length does an incoming req see
system.mem_ctrls0.wrQLenPdf::19                 23096                       # What write queue length does an incoming req see
system.mem_ctrls0.wrQLenPdf::20                 23147                       # What write queue length does an incoming req see
system.mem_ctrls0.wrQLenPdf::21                 23178                       # What write queue length does an incoming req see
system.mem_ctrls0.wrQLenPdf::22                 23213                       # What write queue length does an incoming req see
system.mem_ctrls0.wrQLenPdf::23                 23242                       # What write queue length does an incoming req see
system.mem_ctrls0.wrQLenPdf::24                 23240                       # What write queue length does an incoming req see
system.mem_ctrls0.wrQLenPdf::25                 23324                       # What write queue length does an incoming req see
system.mem_ctrls0.wrQLenPdf::26                 23265                       # What write queue length does an incoming req see
system.mem_ctrls0.wrQLenPdf::27                 23226                       # What write queue length does an incoming req see
system.mem_ctrls0.wrQLenPdf::28                 23135                       # What write queue length does an incoming req see
system.mem_ctrls0.wrQLenPdf::29                 23047                       # What write queue length does an incoming req see
system.mem_ctrls0.wrQLenPdf::30                 22941                       # What write queue length does an incoming req see
system.mem_ctrls0.wrQLenPdf::31                 22864                       # What write queue length does an incoming req see
system.mem_ctrls0.wrQLenPdf::32                 22836                       # What write queue length does an incoming req see
system.mem_ctrls0.wrQLenPdf::33                    87                       # What write queue length does an incoming req see
system.mem_ctrls0.wrQLenPdf::34                    36                       # What write queue length does an incoming req see
system.mem_ctrls0.wrQLenPdf::35                    29                       # What write queue length does an incoming req see
system.mem_ctrls0.wrQLenPdf::36                    18                       # What write queue length does an incoming req see
system.mem_ctrls0.wrQLenPdf::37                    15                       # What write queue length does an incoming req see
system.mem_ctrls0.wrQLenPdf::38                    15                       # What write queue length does an incoming req see
system.mem_ctrls0.wrQLenPdf::39                    12                       # What write queue length does an incoming req see
system.mem_ctrls0.wrQLenPdf::40                    12                       # What write queue length does an incoming req see
system.mem_ctrls0.wrQLenPdf::41                    12                       # What write queue length does an incoming req see
system.mem_ctrls0.wrQLenPdf::42                     9                       # What write queue length does an incoming req see
system.mem_ctrls0.wrQLenPdf::43                     9                       # What write queue length does an incoming req see
system.mem_ctrls0.wrQLenPdf::44                     8                       # What write queue length does an incoming req see
system.mem_ctrls0.wrQLenPdf::45                     8                       # What write queue length does an incoming req see
system.mem_ctrls0.wrQLenPdf::46                     7                       # What write queue length does an incoming req see
system.mem_ctrls0.wrQLenPdf::47                     6                       # What write queue length does an incoming req see
system.mem_ctrls0.wrQLenPdf::48                     4                       # What write queue length does an incoming req see
system.mem_ctrls0.wrQLenPdf::49                     4                       # What write queue length does an incoming req see
system.mem_ctrls0.wrQLenPdf::50                     3                       # What write queue length does an incoming req see
system.mem_ctrls0.wrQLenPdf::51                     3                       # What write queue length does an incoming req see
system.mem_ctrls0.wrQLenPdf::52                     3                       # What write queue length does an incoming req see
system.mem_ctrls0.wrQLenPdf::53                     4                       # What write queue length does an incoming req see
system.mem_ctrls0.wrQLenPdf::54                     4                       # What write queue length does an incoming req see
system.mem_ctrls0.wrQLenPdf::55                     3                       # What write queue length does an incoming req see
system.mem_ctrls0.wrQLenPdf::56                     3                       # What write queue length does an incoming req see
system.mem_ctrls0.wrQLenPdf::57                     6                       # What write queue length does an incoming req see
system.mem_ctrls0.wrQLenPdf::58                     5                       # What write queue length does an incoming req see
system.mem_ctrls0.wrQLenPdf::59                     3                       # What write queue length does an incoming req see
system.mem_ctrls0.wrQLenPdf::60                     2                       # What write queue length does an incoming req see
system.mem_ctrls0.wrQLenPdf::61                     2                       # What write queue length does an incoming req see
system.mem_ctrls0.wrQLenPdf::62                     4                       # What write queue length does an incoming req see
system.mem_ctrls0.wrQLenPdf::63                     0                       # What write queue length does an incoming req see
system.mem_ctrls0.bytesPerActivate::samples       347384                       # Bytes accessed per row activation
system.mem_ctrls0.bytesPerActivate::mean   125.562766                       # Bytes accessed per row activation
system.mem_ctrls0.bytesPerActivate::gmean    99.361454                       # Bytes accessed per row activation
system.mem_ctrls0.bytesPerActivate::stdev   114.691942                       # Bytes accessed per row activation
system.mem_ctrls0.bytesPerActivate::0-127       206996     59.59%     59.59% # Bytes accessed per row activation
system.mem_ctrls0.bytesPerActivate::128-255        96640     27.82%     87.41% # Bytes accessed per row activation
system.mem_ctrls0.bytesPerActivate::256-383        27876      8.02%     95.43% # Bytes accessed per row activation
system.mem_ctrls0.bytesPerActivate::384-511         9150      2.63%     98.06% # Bytes accessed per row activation
system.mem_ctrls0.bytesPerActivate::512-639         3538      1.02%     99.08% # Bytes accessed per row activation
system.mem_ctrls0.bytesPerActivate::640-767         1256      0.36%     99.44% # Bytes accessed per row activation
system.mem_ctrls0.bytesPerActivate::768-895          629      0.18%     99.63% # Bytes accessed per row activation
system.mem_ctrls0.bytesPerActivate::896-1023          464      0.13%     99.76% # Bytes accessed per row activation
system.mem_ctrls0.bytesPerActivate::1024-1151          835      0.24%    100.00% # Bytes accessed per row activation
system.mem_ctrls0.bytesPerActivate::total       347384                       # Bytes accessed per row activation
system.mem_ctrls0.rdPerTurnAround::samples        22807                       # Reads before turning the bus around for writes
system.mem_ctrls0.rdPerTurnAround::mean     13.234270                       # Reads before turning the bus around for writes
system.mem_ctrls0.rdPerTurnAround::stdev     2.879720                       # Reads before turning the bus around for writes
system.mem_ctrls0.rdPerTurnAround::0               87      0.38%      0.38% # Reads before turning the bus around for writes
system.mem_ctrls0.rdPerTurnAround::1               98      0.43%      0.81% # Reads before turning the bus around for writes
system.mem_ctrls0.rdPerTurnAround::2               50      0.22%      1.03% # Reads before turning the bus around for writes
system.mem_ctrls0.rdPerTurnAround::3               53      0.23%      1.26% # Reads before turning the bus around for writes
system.mem_ctrls0.rdPerTurnAround::4               46      0.20%      1.46% # Reads before turning the bus around for writes
system.mem_ctrls0.rdPerTurnAround::5               63      0.28%      1.74% # Reads before turning the bus around for writes
system.mem_ctrls0.rdPerTurnAround::6              145      0.64%      2.38% # Reads before turning the bus around for writes
system.mem_ctrls0.rdPerTurnAround::7              312      1.37%      3.74% # Reads before turning the bus around for writes
system.mem_ctrls0.rdPerTurnAround::8              519      2.28%      6.02% # Reads before turning the bus around for writes
system.mem_ctrls0.rdPerTurnAround::9              865      3.79%      9.81% # Reads before turning the bus around for writes
system.mem_ctrls0.rdPerTurnAround::10            1292      5.66%     15.48% # Reads before turning the bus around for writes
system.mem_ctrls0.rdPerTurnAround::11            1842      8.08%     23.55% # Reads before turning the bus around for writes
system.mem_ctrls0.rdPerTurnAround::12            2202      9.65%     33.21% # Reads before turning the bus around for writes
system.mem_ctrls0.rdPerTurnAround::13            2715     11.90%     45.11% # Reads before turning the bus around for writes
system.mem_ctrls0.rdPerTurnAround::14            3322     14.57%     59.68% # Reads before turning the bus around for writes
system.mem_ctrls0.rdPerTurnAround::15            3739     16.39%     76.07% # Reads before turning the bus around for writes
system.mem_ctrls0.rdPerTurnAround::16            4469     19.59%     95.67% # Reads before turning the bus around for writes
system.mem_ctrls0.rdPerTurnAround::17             821      3.60%     99.27% # Reads before turning the bus around for writes
system.mem_ctrls0.rdPerTurnAround::18             145      0.64%     99.90% # Reads before turning the bus around for writes
system.mem_ctrls0.rdPerTurnAround::19              18      0.08%     99.98% # Reads before turning the bus around for writes
system.mem_ctrls0.rdPerTurnAround::20               4      0.02%    100.00% # Reads before turning the bus around for writes
system.mem_ctrls0.rdPerTurnAround::total        22807                       # Reads before turning the bus around for writes
system.mem_ctrls0.wrPerTurnAround::samples        22807                       # Writes before turning the bus around for reads
system.mem_ctrls0.wrPerTurnAround::mean     16.648924                       # Writes before turning the bus around for reads
system.mem_ctrls0.wrPerTurnAround::gmean    16.558999                       # Writes before turning the bus around for reads
system.mem_ctrls0.wrPerTurnAround::stdev     2.282145                       # Writes before turning the bus around for reads
system.mem_ctrls0.wrPerTurnAround::16-17        17691     77.57%     77.57% # Writes before turning the bus around for reads
system.mem_ctrls0.wrPerTurnAround::18-19         4804     21.06%     98.63% # Writes before turning the bus around for reads
system.mem_ctrls0.wrPerTurnAround::20-21           49      0.21%     98.85% # Writes before turning the bus around for reads
system.mem_ctrls0.wrPerTurnAround::22-23           15      0.07%     98.91% # Writes before turning the bus around for reads
system.mem_ctrls0.wrPerTurnAround::24-25           21      0.09%     99.00% # Writes before turning the bus around for reads
system.mem_ctrls0.wrPerTurnAround::26-27           33      0.14%     99.15% # Writes before turning the bus around for reads
system.mem_ctrls0.wrPerTurnAround::28-29           30      0.13%     99.28% # Writes before turning the bus around for reads
system.mem_ctrls0.wrPerTurnAround::30-31           32      0.14%     99.42% # Writes before turning the bus around for reads
system.mem_ctrls0.wrPerTurnAround::32-33           46      0.20%     99.62% # Writes before turning the bus around for reads
system.mem_ctrls0.wrPerTurnAround::34-35           25      0.11%     99.73% # Writes before turning the bus around for reads
system.mem_ctrls0.wrPerTurnAround::36-37           10      0.04%     99.78% # Writes before turning the bus around for reads
system.mem_ctrls0.wrPerTurnAround::38-39            6      0.03%     99.80% # Writes before turning the bus around for reads
system.mem_ctrls0.wrPerTurnAround::40-41           11      0.05%     99.85% # Writes before turning the bus around for reads
system.mem_ctrls0.wrPerTurnAround::42-43            1      0.00%     99.86% # Writes before turning the bus around for reads
system.mem_ctrls0.wrPerTurnAround::44-45            1      0.00%     99.86% # Writes before turning the bus around for reads
system.mem_ctrls0.wrPerTurnAround::46-47            1      0.00%     99.86% # Writes before turning the bus around for reads
system.mem_ctrls0.wrPerTurnAround::48-49           11      0.05%     99.91% # Writes before turning the bus around for reads
system.mem_ctrls0.wrPerTurnAround::52-53            1      0.00%     99.92% # Writes before turning the bus around for reads
system.mem_ctrls0.wrPerTurnAround::54-55            5      0.02%     99.94% # Writes before turning the bus around for reads
system.mem_ctrls0.wrPerTurnAround::56-57            4      0.02%     99.96% # Writes before turning the bus around for reads
system.mem_ctrls0.wrPerTurnAround::58-59            3      0.01%     99.97% # Writes before turning the bus around for reads
system.mem_ctrls0.wrPerTurnAround::64-65            1      0.00%     99.97% # Writes before turning the bus around for reads
system.mem_ctrls0.wrPerTurnAround::66-67            3      0.01%     99.99% # Writes before turning the bus around for reads
system.mem_ctrls0.wrPerTurnAround::68-69            1      0.00%     99.99% # Writes before turning the bus around for reads
system.mem_ctrls0.wrPerTurnAround::74-75            1      0.00%    100.00% # Writes before turning the bus around for reads
system.mem_ctrls0.wrPerTurnAround::80-81            1      0.00%    100.00% # Writes before turning the bus around for reads
system.mem_ctrls0.wrPerTurnAround::total        22807                       # Writes before turning the bus around for reads
system.mem_ctrls0.totQLat                 13256560250                       # Total ticks spent queuing
system.mem_ctrls0.totMemAccLat            18915872750                       # Total ticks spent from burst creation until serviced by the DRAM
system.mem_ctrls0.totBusLat                1509150000                       # Total ticks spent in databus transfers
system.mem_ctrls0.avgQLat                    43920.62                       # Average queueing delay per DRAM burst
system.mem_ctrls0.avgBusLat                   5000.00                       # Average bus latency per DRAM burst
system.mem_ctrls0.avgMemAccLat               62670.62                       # Average memory access latency per DRAM burst
system.mem_ctrls0.avgRdBW                       37.11                       # Average DRAM read bandwidth in MiByte/s
system.mem_ctrls0.avgWrBW                       46.68                       # Average achieved write bandwidth in MiByte/s
system.mem_ctrls0.avgRdBWSys                    52.02                       # Average system read bandwidth in MiByte/s
system.mem_ctrls0.avgWrBWSys                    53.26                       # Average system write bandwidth in MiByte/s
system.mem_ctrls0.peakBW                     12800.00                       # Theoretical peak bandwidth in MiByte/s
system.mem_ctrls0.busUtil                        0.65                       # Data bus utilization in percentage
system.mem_ctrls0.busUtilRead                    0.29                       # Data bus utilization in percentage for reads
system.mem_ctrls0.busUtilWrite                   0.36                       # Data bus utilization in percentage for writes
system.mem_ctrls0.avgRdQLen                      1.00                       # Average read queue length when enqueuing
system.mem_ctrls0.avgWrQLen                     25.42                       # Average write queue length when enqueuing
system.mem_ctrls0.readRowHits                  123675                       # Number of row buffer hits during reads
system.mem_ctrls0.writeRowHits                 210481                       # Number of row buffer hits during writes
system.mem_ctrls0.readRowHitRate                40.98                       # Row buffer hit rate for reads
system.mem_ctrls0.writeRowHitRate               55.43                       # Row buffer hit rate for writes
system.mem_ctrls0.avgGap                    607852.68                       # Average gap between requests
system.mem_ctrls0.pageHitRate                   49.03                       # Row buffer hit rate, read and write combined
system.mem_ctrls0_0.actEnergy              2741781420                       # Energy for activate commands per rank (pJ)
system.mem_ctrls0_0.preEnergy              1457280000                       # Energy for precharge commands per rank (pJ)
system.mem_ctrls0_0.readEnergy             2650625040                       # Energy for read commands per rank (pJ)
system.mem_ctrls0_0.writeEnergy            2271676140                       # Energy for write commands per rank (pJ)
system.mem_ctrls0_0.refreshEnergy        57803204160.000015                       # Energy for refresh commands per rank (pJ)
system.mem_ctrls0_0.actBackEnergy         36632965200                       # Energy for active background per rank (pJ)
system.mem_ctrls0_0.preBackEnergy          2262639360                       # Energy for precharge background per rank (pJ)
system.mem_ctrls0_0.actPowerDownEnergy   186374325000                       # Energy for active power-down per rank (pJ)
system.mem_ctrls0_0.prePowerDownEnergy    64417572000                       # Energy for precharge power-down per rank (pJ)
system.mem_ctrls0_0.selfRefreshEnergy    1259858490030                       # Energy for self refresh per rank (pJ)
system.mem_ctrls0_0.totalEnergy          1616489231520                       # Total energy per rank (pJ)
system.mem_ctrls0_0.averagePower           274.445738                       # Core power per rank (mW)
system.mem_ctrls0_0.totalIdleTime        470451611500                       # Total Idle time Per DRAM Rank
system.mem_ctrls0_0.memoryStateTime::IDLE   2440507000                       # Time in different power states
system.mem_ctrls0_0.memoryStateTime::REF  14307476000                       # Time in different power states
system.mem_ctrls0_0.memoryStateTime::SREF 142304971500                       # Time in different power states
system.mem_ctrls0_0.memoryStateTime::PRE_PDN 108453801000                       # Time in different power states
system.mem_ctrls0_0.memoryStateTime::ACT  33407856500                       # Time in different power states
system.mem_ctrls0_0.memoryStateTime::ACT_PDN 219692918000                       # Time in different power states
system.mem_ctrls0_1.actEnergy              2005754520                       # Energy for activate commands per rank (pJ)
system.mem_ctrls0_1.preEnergy              1066076220                       # Energy for precharge commands per rank (pJ)
system.mem_ctrls0_1.readEnergy             1913120160                       # Energy for read commands per rank (pJ)
system.mem_ctrls0_1.writeEnergy            1632492360                       # Energy for write commands per rank (pJ)
system.mem_ctrls0_1.refreshEnergy        59200895520.000015                       # Energy for refresh commands per rank (pJ)
system.mem_ctrls0_1.actBackEnergy         39877478160                       # Energy for active background per rank (pJ)
system.mem_ctrls0_1.preBackEnergy          2533882560                       # Energy for precharge background per rank (pJ)
system.mem_ctrls0_1.actPowerDownEnergy   166826691990                       # Energy for active power-down per rank (pJ)
system.mem_ctrls0_1.prePowerDownEnergy    78762132480                       # Energy for precharge power-down per rank (pJ)
system.mem_ctrls0_1.selfRefreshEnergy    1260480705615                       # Energy for self refresh per rank (pJ)
system.mem_ctrls0_1.totalEnergy          1614330595995                       # Total energy per rank (pJ)
system.mem_ctrls0_1.averagePower           274.079247                       # Core power per rank (mW)
system.mem_ctrls0_1.totalIdleTime        469125930250                       # Total Idle time Per DRAM Rank
system.mem_ctrls0_1.memoryStateTime::IDLE   2605763500                       # Time in different power states
system.mem_ctrls0_1.memoryStateTime::REF  14703018000                       # Time in different power states
system.mem_ctrls0_1.memoryStateTime::SREF 137471825750                       # Time in different power states
system.mem_ctrls0_1.memoryStateTime::PRE_PDN 123236431750                       # Time in different power states
system.mem_ctrls0_1.memoryStateTime::ACT  34175597750                       # Time in different power states
system.mem_ctrls0_1.memoryStateTime::ACT_PDN 208417672750                       # Time in different power states
system.mem_ctrls1.pwrStateResidencyTicks::UNDEFINED 5890013956000                       # Cumulative time (in ticks) in various power states
system.mem_ctrls1.bytes_read::ruby.dir_cntrl1     24424000                       # Number of bytes read from this memory
system.mem_ctrls1.bytes_read::total          24424000                       # Number of bytes read from this memory
system.mem_ctrls1.bytes_written::ruby.dir_cntrl1     25077696                       # Number of bytes written to this memory
system.mem_ctrls1.bytes_written::total       25077696                       # Number of bytes written to this memory
system.mem_ctrls1.num_reads::ruby.dir_cntrl1       381625                       # Number of read requests responded to by this memory
system.mem_ctrls1.num_reads::total             381625                       # Number of read requests responded to by this memory
system.mem_ctrls1.num_writes::ruby.dir_cntrl1       391839                       # Number of write requests responded to by this memory
system.mem_ctrls1.num_writes::total            391839                       # Number of write requests responded to by this memory
system.mem_ctrls1.bw_read::ruby.dir_cntrl1     46914489                       # Total read bandwidth from this memory (bytes/s)
system.mem_ctrls1.bw_read::total             46914489                       # Total read bandwidth from this memory (bytes/s)
system.mem_ctrls1.bw_write::ruby.dir_cntrl1     48170132                       # Write bandwidth from this memory (bytes/s)
system.mem_ctrls1.bw_write::total            48170132                       # Write bandwidth from this memory (bytes/s)
system.mem_ctrls1.bw_total::ruby.dir_cntrl1     95084621                       # Total bandwidth to/from this memory (bytes/s)
system.mem_ctrls1.bw_total::total            95084621                       # Total bandwidth to/from this memory (bytes/s)
system.mem_ctrls1.readReqs                     381625                       # Number of read requests accepted
system.mem_ctrls1.writeReqs                    391839                       # Number of write requests accepted
system.mem_ctrls1.readBursts                   381625                       # Number of DRAM read bursts, including those serviced by the write queue
system.mem_ctrls1.writeBursts                  391839                       # Number of DRAM write bursts, including those merged in the write queue
system.mem_ctrls1.bytesReadDRAM              18310848                       # Total number of bytes read from DRAM
system.mem_ctrls1.bytesReadWrQ                6113152                       # Total number of bytes read from write queue
system.mem_ctrls1.bytesWritten               22732800                       # Total number of bytes written to DRAM
system.mem_ctrls1.bytesReadSys               24424000                       # Total read bytes from the system interface side
system.mem_ctrls1.bytesWrittenSys            25077696                       # Total written bytes from the system interface side
system.mem_ctrls1.servicedByWrQ                 95518                       # Number of DRAM read bursts serviced by the write queue
system.mem_ctrls1.mergedWrBursts                36633                       # Number of DRAM write bursts merged with an existing one
system.mem_ctrls1.neitherReadNorWriteReqs            0                       # Number of requests that are neither read nor write
system.mem_ctrls1.perBankRdBursts::0            16508                       # Per bank write bursts
system.mem_ctrls1.perBankRdBursts::1            20335                       # Per bank write bursts
system.mem_ctrls1.perBankRdBursts::2            17844                       # Per bank write bursts
system.mem_ctrls1.perBankRdBursts::3            15960                       # Per bank write bursts
system.mem_ctrls1.perBankRdBursts::4            20416                       # Per bank write bursts
system.mem_ctrls1.perBankRdBursts::5            23616                       # Per bank write bursts
system.mem_ctrls1.perBankRdBursts::6            21609                       # Per bank write bursts
system.mem_ctrls1.perBankRdBursts::7            15802                       # Per bank write bursts
system.mem_ctrls1.perBankRdBursts::8            20076                       # Per bank write bursts
system.mem_ctrls1.perBankRdBursts::9            12337                       # Per bank write bursts
system.mem_ctrls1.perBankRdBursts::10            9665                       # Per bank write bursts
system.mem_ctrls1.perBankRdBursts::11            8705                       # Per bank write bursts
system.mem_ctrls1.perBankRdBursts::12           22133                       # Per bank write bursts
system.mem_ctrls1.perBankRdBursts::13           23828                       # Per bank write bursts
system.mem_ctrls1.perBankRdBursts::14           16454                       # Per bank write bursts
system.mem_ctrls1.perBankRdBursts::15           20819                       # Per bank write bursts
system.mem_ctrls1.perBankWrBursts::0            20948                       # Per bank write bursts
system.mem_ctrls1.perBankWrBursts::1            25006                       # Per bank write bursts
system.mem_ctrls1.perBankWrBursts::2            22143                       # Per bank write bursts
system.mem_ctrls1.perBankWrBursts::3            20470                       # Per bank write bursts
system.mem_ctrls1.perBankWrBursts::4            25727                       # Per bank write bursts
system.mem_ctrls1.perBankWrBursts::5            29371                       # Per bank write bursts
system.mem_ctrls1.perBankWrBursts::6            28480                       # Per bank write bursts
system.mem_ctrls1.perBankWrBursts::7            17796                       # Per bank write bursts
system.mem_ctrls1.perBankWrBursts::8            25743                       # Per bank write bursts
system.mem_ctrls1.perBankWrBursts::9            14953                       # Per bank write bursts
system.mem_ctrls1.perBankWrBursts::10           13435                       # Per bank write bursts
system.mem_ctrls1.perBankWrBursts::11           10436                       # Per bank write bursts
system.mem_ctrls1.perBankWrBursts::12           26259                       # Per bank write bursts
system.mem_ctrls1.perBankWrBursts::13           28797                       # Per bank write bursts
system.mem_ctrls1.perBankWrBursts::14           18186                       # Per bank write bursts
system.mem_ctrls1.perBankWrBursts::15           27450                       # Per bank write bursts
system.mem_ctrls1.numRdRetry                        0                       # Number of times read queue was full causing retry
system.mem_ctrls1.numWrRetry                        5                       # Number of times write queue was full causing retry
system.mem_ctrls1.totGap                 520606257500                       # Total gap between requests
system.mem_ctrls1.readPktSize::0                    0                       # Read request sizes (log2)
system.mem_ctrls1.readPktSize::1                    0                       # Read request sizes (log2)
system.mem_ctrls1.readPktSize::2                    0                       # Read request sizes (log2)
system.mem_ctrls1.readPktSize::3                    0                       # Read request sizes (log2)
system.mem_ctrls1.readPktSize::4                    0                       # Read request sizes (log2)
system.mem_ctrls1.readPktSize::5                    0                       # Read request sizes (log2)
system.mem_ctrls1.readPktSize::6               381625                       # Read request sizes (log2)
system.mem_ctrls1.writePktSize::0                   0                       # Write request sizes (log2)
system.mem_ctrls1.writePktSize::1                   0                       # Write request sizes (log2)
system.mem_ctrls1.writePktSize::2                   0                       # Write request sizes (log2)
system.mem_ctrls1.writePktSize::3                   0                       # Write request sizes (log2)
system.mem_ctrls1.writePktSize::4                   0                       # Write request sizes (log2)
system.mem_ctrls1.writePktSize::5                   0                       # Write request sizes (log2)
system.mem_ctrls1.writePktSize::6              391839                       # Write request sizes (log2)
system.mem_ctrls1.rdQLenPdf::0                 286107                       # What read queue length does an incoming req see
system.mem_ctrls1.rdQLenPdf::1                      0                       # What read queue length does an incoming req see
system.mem_ctrls1.rdQLenPdf::2                      0                       # What read queue length does an incoming req see
system.mem_ctrls1.rdQLenPdf::3                      0                       # What read queue length does an incoming req see
system.mem_ctrls1.rdQLenPdf::4                      0                       # What read queue length does an incoming req see
system.mem_ctrls1.rdQLenPdf::5                      0                       # What read queue length does an incoming req see
system.mem_ctrls1.rdQLenPdf::6                      0                       # What read queue length does an incoming req see
system.mem_ctrls1.rdQLenPdf::7                      0                       # What read queue length does an incoming req see
system.mem_ctrls1.rdQLenPdf::8                      0                       # What read queue length does an incoming req see
system.mem_ctrls1.rdQLenPdf::9                      0                       # What read queue length does an incoming req see
system.mem_ctrls1.rdQLenPdf::10                     0                       # What read queue length does an incoming req see
system.mem_ctrls1.rdQLenPdf::11                     0                       # What read queue length does an incoming req see
system.mem_ctrls1.rdQLenPdf::12                     0                       # What read queue length does an incoming req see
system.mem_ctrls1.rdQLenPdf::13                     0                       # What read queue length does an incoming req see
system.mem_ctrls1.rdQLenPdf::14                     0                       # What read queue length does an incoming req see
system.mem_ctrls1.rdQLenPdf::15                     0                       # What read queue length does an incoming req see
system.mem_ctrls1.rdQLenPdf::16                     0                       # What read queue length does an incoming req see
system.mem_ctrls1.rdQLenPdf::17                     0                       # What read queue length does an incoming req see
system.mem_ctrls1.rdQLenPdf::18                     0                       # What read queue length does an incoming req see
system.mem_ctrls1.rdQLenPdf::19                     0                       # What read queue length does an incoming req see
system.mem_ctrls1.rdQLenPdf::20                     0                       # What read queue length does an incoming req see
system.mem_ctrls1.rdQLenPdf::21                     0                       # What read queue length does an incoming req see
system.mem_ctrls1.rdQLenPdf::22                     0                       # What read queue length does an incoming req see
system.mem_ctrls1.rdQLenPdf::23                     0                       # What read queue length does an incoming req see
system.mem_ctrls1.rdQLenPdf::24                     0                       # What read queue length does an incoming req see
system.mem_ctrls1.rdQLenPdf::25                     0                       # What read queue length does an incoming req see
system.mem_ctrls1.rdQLenPdf::26                     0                       # What read queue length does an incoming req see
system.mem_ctrls1.rdQLenPdf::27                     0                       # What read queue length does an incoming req see
system.mem_ctrls1.rdQLenPdf::28                     0                       # What read queue length does an incoming req see
system.mem_ctrls1.rdQLenPdf::29                     0                       # What read queue length does an incoming req see
system.mem_ctrls1.rdQLenPdf::30                     0                       # What read queue length does an incoming req see
system.mem_ctrls1.rdQLenPdf::31                     0                       # What read queue length does an incoming req see
system.mem_ctrls1.wrQLenPdf::0                      0                       # What write queue length does an incoming req see
system.mem_ctrls1.wrQLenPdf::1                      0                       # What write queue length does an incoming req see
system.mem_ctrls1.wrQLenPdf::2                      0                       # What write queue length does an incoming req see
system.mem_ctrls1.wrQLenPdf::3                      0                       # What write queue length does an incoming req see
system.mem_ctrls1.wrQLenPdf::4                      0                       # What write queue length does an incoming req see
system.mem_ctrls1.wrQLenPdf::5                      0                       # What write queue length does an incoming req see
system.mem_ctrls1.wrQLenPdf::6                      0                       # What write queue length does an incoming req see
system.mem_ctrls1.wrQLenPdf::7                      0                       # What write queue length does an incoming req see
system.mem_ctrls1.wrQLenPdf::8                      0                       # What write queue length does an incoming req see
system.mem_ctrls1.wrQLenPdf::9                      0                       # What write queue length does an incoming req see
system.mem_ctrls1.wrQLenPdf::10                     0                       # What write queue length does an incoming req see
system.mem_ctrls1.wrQLenPdf::11                     0                       # What write queue length does an incoming req see
system.mem_ctrls1.wrQLenPdf::12                     0                       # What write queue length does an incoming req see
system.mem_ctrls1.wrQLenPdf::13                     0                       # What write queue length does an incoming req see
system.mem_ctrls1.wrQLenPdf::14                     0                       # What write queue length does an incoming req see
system.mem_ctrls1.wrQLenPdf::15                  4352                       # What write queue length does an incoming req see
system.mem_ctrls1.wrQLenPdf::16                  4625                       # What write queue length does an incoming req see
system.mem_ctrls1.wrQLenPdf::17                 21182                       # What write queue length does an incoming req see
system.mem_ctrls1.wrQLenPdf::18                 21604                       # What write queue length does an incoming req see
system.mem_ctrls1.wrQLenPdf::19                 21684                       # What write queue length does an incoming req see
system.mem_ctrls1.wrQLenPdf::20                 21714                       # What write queue length does an incoming req see
system.mem_ctrls1.wrQLenPdf::21                 21738                       # What write queue length does an incoming req see
system.mem_ctrls1.wrQLenPdf::22                 21794                       # What write queue length does an incoming req see
system.mem_ctrls1.wrQLenPdf::23                 21743                       # What write queue length does an incoming req see
system.mem_ctrls1.wrQLenPdf::24                 21784                       # What write queue length does an incoming req see
system.mem_ctrls1.wrQLenPdf::25                 21865                       # What write queue length does an incoming req see
system.mem_ctrls1.wrQLenPdf::26                 21714                       # What write queue length does an incoming req see
system.mem_ctrls1.wrQLenPdf::27                 21703                       # What write queue length does an incoming req see
system.mem_ctrls1.wrQLenPdf::28                 21585                       # What write queue length does an incoming req see
system.mem_ctrls1.wrQLenPdf::29                 21519                       # What write queue length does an incoming req see
system.mem_ctrls1.wrQLenPdf::30                 21435                       # What write queue length does an incoming req see
system.mem_ctrls1.wrQLenPdf::31                 21383                       # What write queue length does an incoming req see
system.mem_ctrls1.wrQLenPdf::32                 21364                       # What write queue length does an incoming req see
system.mem_ctrls1.wrQLenPdf::33                    69                       # What write queue length does an incoming req see
system.mem_ctrls1.wrQLenPdf::34                    29                       # What write queue length does an incoming req see
system.mem_ctrls1.wrQLenPdf::35                    32                       # What write queue length does an incoming req see
system.mem_ctrls1.wrQLenPdf::36                    26                       # What write queue length does an incoming req see
system.mem_ctrls1.wrQLenPdf::37                    19                       # What write queue length does an incoming req see
system.mem_ctrls1.wrQLenPdf::38                    24                       # What write queue length does an incoming req see
system.mem_ctrls1.wrQLenPdf::39                    19                       # What write queue length does an incoming req see
system.mem_ctrls1.wrQLenPdf::40                    12                       # What write queue length does an incoming req see
system.mem_ctrls1.wrQLenPdf::41                    12                       # What write queue length does an incoming req see
system.mem_ctrls1.wrQLenPdf::42                    15                       # What write queue length does an incoming req see
system.mem_ctrls1.wrQLenPdf::43                    17                       # What write queue length does an incoming req see
system.mem_ctrls1.wrQLenPdf::44                    16                       # What write queue length does an incoming req see
system.mem_ctrls1.wrQLenPdf::45                    16                       # What write queue length does an incoming req see
system.mem_ctrls1.wrQLenPdf::46                    10                       # What write queue length does an incoming req see
system.mem_ctrls1.wrQLenPdf::47                     7                       # What write queue length does an incoming req see
system.mem_ctrls1.wrQLenPdf::48                     8                       # What write queue length does an incoming req see
system.mem_ctrls1.wrQLenPdf::49                     9                       # What write queue length does an incoming req see
system.mem_ctrls1.wrQLenPdf::50                    12                       # What write queue length does an incoming req see
system.mem_ctrls1.wrQLenPdf::51                    17                       # What write queue length does an incoming req see
system.mem_ctrls1.wrQLenPdf::52                     6                       # What write queue length does an incoming req see
system.mem_ctrls1.wrQLenPdf::53                     4                       # What write queue length does an incoming req see
system.mem_ctrls1.wrQLenPdf::54                     4                       # What write queue length does an incoming req see
system.mem_ctrls1.wrQLenPdf::55                     3                       # What write queue length does an incoming req see
system.mem_ctrls1.wrQLenPdf::56                     4                       # What write queue length does an incoming req see
system.mem_ctrls1.wrQLenPdf::57                     3                       # What write queue length does an incoming req see
system.mem_ctrls1.wrQLenPdf::58                     4                       # What write queue length does an incoming req see
system.mem_ctrls1.wrQLenPdf::59                     4                       # What write queue length does an incoming req see
system.mem_ctrls1.wrQLenPdf::60                     3                       # What write queue length does an incoming req see
system.mem_ctrls1.wrQLenPdf::61                     2                       # What write queue length does an incoming req see
system.mem_ctrls1.wrQLenPdf::62                     3                       # What write queue length does an incoming req see
system.mem_ctrls1.wrQLenPdf::63                     9                       # What write queue length does an incoming req see
system.mem_ctrls1.bytesPerActivate::samples       315180                       # Bytes accessed per row activation
system.mem_ctrls1.bytesPerActivate::mean   130.223288                       # Bytes accessed per row activation
system.mem_ctrls1.bytesPerActivate::gmean   101.880294                       # Bytes accessed per row activation
system.mem_ctrls1.bytesPerActivate::stdev   120.654797                       # Bytes accessed per row activation
system.mem_ctrls1.bytesPerActivate::0-127       182710     57.97%     57.97% # Bytes accessed per row activation
system.mem_ctrls1.bytesPerActivate::128-255        89421     28.37%     86.34% # Bytes accessed per row activation
system.mem_ctrls1.bytesPerActivate::256-383        26298      8.34%     94.69% # Bytes accessed per row activation
system.mem_ctrls1.bytesPerActivate::384-511         9546      3.03%     97.71% # Bytes accessed per row activation
system.mem_ctrls1.bytesPerActivate::512-639         3906      1.24%     98.95% # Bytes accessed per row activation
system.mem_ctrls1.bytesPerActivate::640-767         1257      0.40%     99.35% # Bytes accessed per row activation
system.mem_ctrls1.bytesPerActivate::768-895          685      0.22%     99.57% # Bytes accessed per row activation
system.mem_ctrls1.bytesPerActivate::896-1023          462      0.15%     99.72% # Bytes accessed per row activation
system.mem_ctrls1.bytesPerActivate::1024-1151          895      0.28%    100.00% # Bytes accessed per row activation
system.mem_ctrls1.bytesPerActivate::total       315180                       # Bytes accessed per row activation
system.mem_ctrls1.rdPerTurnAround::samples        21349                       # Reads before turning the bus around for writes
system.mem_ctrls1.rdPerTurnAround::mean     13.401283                       # Reads before turning the bus around for writes
system.mem_ctrls1.rdPerTurnAround::stdev     2.944678                       # Reads before turning the bus around for writes
system.mem_ctrls1.rdPerTurnAround::0              102      0.48%      0.48% # Reads before turning the bus around for writes
system.mem_ctrls1.rdPerTurnAround::1              107      0.50%      0.98% # Reads before turning the bus around for writes
system.mem_ctrls1.rdPerTurnAround::2               37      0.17%      1.15% # Reads before turning the bus around for writes
system.mem_ctrls1.rdPerTurnAround::3               25      0.12%      1.27% # Reads before turning the bus around for writes
system.mem_ctrls1.rdPerTurnAround::4               29      0.14%      1.41% # Reads before turning the bus around for writes
system.mem_ctrls1.rdPerTurnAround::5               59      0.28%      1.68% # Reads before turning the bus around for writes
system.mem_ctrls1.rdPerTurnAround::6              126      0.59%      2.27% # Reads before turning the bus around for writes
system.mem_ctrls1.rdPerTurnAround::7              298      1.40%      3.67% # Reads before turning the bus around for writes
system.mem_ctrls1.rdPerTurnAround::8              531      2.49%      6.15% # Reads before turning the bus around for writes
system.mem_ctrls1.rdPerTurnAround::9              868      4.07%     10.22% # Reads before turning the bus around for writes
system.mem_ctrls1.rdPerTurnAround::10            1158      5.42%     15.64% # Reads before turning the bus around for writes
system.mem_ctrls1.rdPerTurnAround::11            1464      6.86%     22.50% # Reads before turning the bus around for writes
system.mem_ctrls1.rdPerTurnAround::12            1782      8.35%     30.85% # Reads before turning the bus around for writes
system.mem_ctrls1.rdPerTurnAround::13            2224     10.42%     41.27% # Reads before turning the bus around for writes
system.mem_ctrls1.rdPerTurnAround::14            2872     13.45%     54.72% # Reads before turning the bus around for writes
system.mem_ctrls1.rdPerTurnAround::15            3369     15.78%     70.50% # Reads before turning the bus around for writes
system.mem_ctrls1.rdPerTurnAround::16            5403     25.31%     95.81% # Reads before turning the bus around for writes
system.mem_ctrls1.rdPerTurnAround::17             765      3.58%     99.39% # Reads before turning the bus around for writes
system.mem_ctrls1.rdPerTurnAround::18             112      0.52%     99.92% # Reads before turning the bus around for writes
system.mem_ctrls1.rdPerTurnAround::19              17      0.08%    100.00% # Reads before turning the bus around for writes
system.mem_ctrls1.rdPerTurnAround::20               1      0.00%    100.00% # Reads before turning the bus around for writes
system.mem_ctrls1.rdPerTurnAround::total        21349                       # Reads before turning the bus around for writes
system.mem_ctrls1.wrPerTurnAround::samples        21349                       # Writes before turning the bus around for reads
system.mem_ctrls1.wrPerTurnAround::mean     16.637782                       # Writes before turning the bus around for reads
system.mem_ctrls1.wrPerTurnAround::gmean    16.535774                       # Writes before turning the bus around for reads
system.mem_ctrls1.wrPerTurnAround::stdev     2.479483                       # Writes before turning the bus around for reads
system.mem_ctrls1.wrPerTurnAround::16-17        16926     79.28%     79.28% # Writes before turning the bus around for reads
system.mem_ctrls1.wrPerTurnAround::18-19         4145     19.42%     98.70% # Writes before turning the bus around for reads
system.mem_ctrls1.wrPerTurnAround::20-21           10      0.05%     98.74% # Writes before turning the bus around for reads
system.mem_ctrls1.wrPerTurnAround::22-23            7      0.03%     98.78% # Writes before turning the bus around for reads
system.mem_ctrls1.wrPerTurnAround::24-25           21      0.10%     98.88% # Writes before turning the bus around for reads
system.mem_ctrls1.wrPerTurnAround::26-27           29      0.14%     99.01% # Writes before turning the bus around for reads
system.mem_ctrls1.wrPerTurnAround::28-29           36      0.17%     99.18% # Writes before turning the bus around for reads
system.mem_ctrls1.wrPerTurnAround::30-31           28      0.13%     99.31% # Writes before turning the bus around for reads
system.mem_ctrls1.wrPerTurnAround::32-33           41      0.19%     99.50% # Writes before turning the bus around for reads
system.mem_ctrls1.wrPerTurnAround::34-35           24      0.11%     99.62% # Writes before turning the bus around for reads
system.mem_ctrls1.wrPerTurnAround::36-37           13      0.06%     99.68% # Writes before turning the bus around for reads
system.mem_ctrls1.wrPerTurnAround::38-39            8      0.04%     99.71% # Writes before turning the bus around for reads
system.mem_ctrls1.wrPerTurnAround::40-41           11      0.05%     99.77% # Writes before turning the bus around for reads
system.mem_ctrls1.wrPerTurnAround::42-43            6      0.03%     99.79% # Writes before turning the bus around for reads
system.mem_ctrls1.wrPerTurnAround::44-45            3      0.01%     99.81% # Writes before turning the bus around for reads
system.mem_ctrls1.wrPerTurnAround::46-47            6      0.03%     99.84% # Writes before turning the bus around for reads
system.mem_ctrls1.wrPerTurnAround::48-49           17      0.08%     99.92% # Writes before turning the bus around for reads
system.mem_ctrls1.wrPerTurnAround::54-55            2      0.01%     99.93% # Writes before turning the bus around for reads
system.mem_ctrls1.wrPerTurnAround::56-57            5      0.02%     99.95% # Writes before turning the bus around for reads
system.mem_ctrls1.wrPerTurnAround::58-59            1      0.00%     99.95% # Writes before turning the bus around for reads
system.mem_ctrls1.wrPerTurnAround::60-61            1      0.00%     99.96% # Writes before turning the bus around for reads
system.mem_ctrls1.wrPerTurnAround::64-65            3      0.01%     99.97% # Writes before turning the bus around for reads
system.mem_ctrls1.wrPerTurnAround::66-67            3      0.01%     99.99% # Writes before turning the bus around for reads
system.mem_ctrls1.wrPerTurnAround::72-73            1      0.00%     99.99% # Writes before turning the bus around for reads
system.mem_ctrls1.wrPerTurnAround::76-77            1      0.00%    100.00% # Writes before turning the bus around for reads
system.mem_ctrls1.wrPerTurnAround::78-79            1      0.00%    100.00% # Writes before turning the bus around for reads
system.mem_ctrls1.wrPerTurnAround::total        21349                       # Writes before turning the bus around for reads
system.mem_ctrls1.totQLat                 12435335250                       # Total ticks spent queuing
system.mem_ctrls1.totMemAccLat            17799841500                       # Total ticks spent from burst creation until serviced by the DRAM
system.mem_ctrls1.totBusLat                1430535000                       # Total ticks spent in databus transfers
system.mem_ctrls1.avgQLat                    43463.93                       # Average queueing delay per DRAM burst
system.mem_ctrls1.avgBusLat                   5000.00                       # Average bus latency per DRAM burst
system.mem_ctrls1.avgMemAccLat               62213.93                       # Average memory access latency per DRAM burst
system.mem_ctrls1.avgRdBW                       35.17                       # Average DRAM read bandwidth in MiByte/s
system.mem_ctrls1.avgWrBW                       43.67                       # Average achieved write bandwidth in MiByte/s
system.mem_ctrls1.avgRdBWSys                    46.91                       # Average system read bandwidth in MiByte/s
system.mem_ctrls1.avgWrBWSys                    48.17                       # Average system write bandwidth in MiByte/s
system.mem_ctrls1.peakBW                     12800.00                       # Theoretical peak bandwidth in MiByte/s
system.mem_ctrls1.busUtil                        0.62                       # Data bus utilization in percentage
system.mem_ctrls1.busUtilRead                    0.27                       # Data bus utilization in percentage for reads
system.mem_ctrls1.busUtilWrite                   0.34                       # Data bus utilization in percentage for writes
system.mem_ctrls1.avgRdQLen                      1.00                       # Average read queue length when enqueuing
system.mem_ctrls1.avgWrQLen                     25.53                       # Average write queue length when enqueuing
system.mem_ctrls1.readRowHits                  122922                       # Number of row buffer hits during reads
system.mem_ctrls1.writeRowHits                 203206                       # Number of row buffer hits during writes
system.mem_ctrls1.readRowHitRate                42.96                       # Row buffer hit rate for reads
system.mem_ctrls1.writeRowHitRate               57.21                       # Row buffer hit rate for writes
system.mem_ctrls1.avgGap                    673084.02                       # Average gap between requests
system.mem_ctrls1.pageHitRate                   50.85                       # Row buffer hit rate, read and write combined
system.mem_ctrls1_0.actEnergy              2577425760                       # Energy for activate commands per rank (pJ)
system.mem_ctrls1_0.preEnergy              1369930485                       # Energy for precharge commands per rank (pJ)
system.mem_ctrls1_0.readEnergy             2469540360                       # Energy for read commands per rank (pJ)
system.mem_ctrls1_0.writeEnergy            2090129760                       # Energy for write commands per rank (pJ)
system.mem_ctrls1_0.refreshEnergy        56040416640.000015                       # Energy for refresh commands per rank (pJ)
system.mem_ctrls1_0.actBackEnergy         34880138820                       # Energy for active background per rank (pJ)
system.mem_ctrls1_0.preBackEnergy          2319904800                       # Energy for precharge background per rank (pJ)
system.mem_ctrls1_0.actPowerDownEnergy   180690757530                       # Energy for active power-down per rank (pJ)
system.mem_ctrls1_0.prePowerDownEnergy    62865552000                       # Energy for precharge power-down per rank (pJ)
system.mem_ctrls1_0.selfRefreshEnergy    1264544302080                       # Energy for self refresh per rank (pJ)
system.mem_ctrls1_0.totalEnergy          1609866067275                       # Total energy per rank (pJ)
system.mem_ctrls1_0.averagePower           273.321265                       # Core power per rank (mW)
system.mem_ctrls1_0.totalIdleTime        472680204500                       # Total Idle time Per DRAM Rank
system.mem_ctrls1_0.memoryStateTime::IDLE   2696108750                       # Time in different power states
system.mem_ctrls1_0.memoryStateTime::REF  13570400000                       # Time in different power states
system.mem_ctrls1_0.memoryStateTime::SREF 161533054000                       # Time in different power states
system.mem_ctrls1_0.memoryStateTime::PRE_PDN 102991888750                       # Time in different power states
system.mem_ctrls1_0.memoryStateTime::ACT  31659558000                       # Time in different power states
system.mem_ctrls1_0.memoryStateTime::ACT_PDN 208155839250                       # Time in different power states
system.mem_ctrls1_1.actEnergy              1861933500                       # Energy for activate commands per rank (pJ)
system.mem_ctrls1_1.preEnergy               989641125                       # Energy for precharge commands per rank (pJ)
system.mem_ctrls1_1.readEnergy             1816715880                       # Energy for read commands per rank (pJ)
system.mem_ctrls1_1.writeEnergy            1548225900                       # Energy for write commands per rank (pJ)
system.mem_ctrls1_1.refreshEnergy        58187354160.000015                       # Energy for refresh commands per rank (pJ)
system.mem_ctrls1_1.actBackEnergy         38097302040                       # Energy for active background per rank (pJ)
system.mem_ctrls1_1.preBackEnergy          2531485440                       # Energy for precharge background per rank (pJ)
system.mem_ctrls1_1.actPowerDownEnergy   160025127660                       # Energy for active power-down per rank (pJ)
system.mem_ctrls1_1.prePowerDownEnergy    80050146720                       # Energy for precharge power-down per rank (pJ)
system.mem_ctrls1_1.selfRefreshEnergy    1264394015130                       # Energy for self refresh per rank (pJ)
system.mem_ctrls1_1.totalEnergy          1609534265205                       # Total energy per rank (pJ)
system.mem_ctrls1_1.averagePower           273.264932                       # Core power per rank (mW)
system.mem_ctrls1_1.totalIdleTime        472041062000                       # Total Idle time Per DRAM Rank
system.mem_ctrls1_1.memoryStateTime::IDLE   2589528750                       # Time in different power states
system.mem_ctrls1_1.memoryStateTime::REF  14216266000                       # Time in different power states
system.mem_ctrls1_1.memoryStateTime::SREF 150524761500                       # Time in different power states
system.mem_ctrls1_1.memoryStateTime::PRE_PDN 119578894500                       # Time in different power states
system.mem_ctrls1_1.memoryStateTime::ACT  31760368750                       # Time in different power states
system.mem_ctrls1_1.memoryStateTime::ACT_PDN 201938374000                       # Time in different power states
system.mem_ctrls2.pwrStateResidencyTicks::UNDEFINED 5890013956000                       # Cumulative time (in ticks) in various power states
system.mem_ctrls2.bytes_read::ruby.dir_cntrl2     24675264                       # Number of bytes read from this memory
system.mem_ctrls2.bytes_read::total          24675264                       # Number of bytes read from this memory
system.mem_ctrls2.bytes_written::ruby.dir_cntrl2     25328960                       # Number of bytes written to this memory
system.mem_ctrls2.bytes_written::total       25328960                       # Number of bytes written to this memory
system.mem_ctrls2.num_reads::ruby.dir_cntrl2       385551                       # Number of read requests responded to by this memory
system.mem_ctrls2.num_reads::total             385551                       # Number of read requests responded to by this memory
system.mem_ctrls2.num_writes::ruby.dir_cntrl2       395765                       # Number of write requests responded to by this memory
system.mem_ctrls2.num_writes::total            395765                       # Number of write requests responded to by this memory
system.mem_ctrls2.bw_read::ruby.dir_cntrl2     47397126                       # Total read bandwidth from this memory (bytes/s)
system.mem_ctrls2.bw_read::total             47397126                       # Total read bandwidth from this memory (bytes/s)
system.mem_ctrls2.bw_write::ruby.dir_cntrl2     48652769                       # Write bandwidth from this memory (bytes/s)
system.mem_ctrls2.bw_write::total            48652769                       # Write bandwidth from this memory (bytes/s)
system.mem_ctrls2.bw_total::ruby.dir_cntrl2     96049895                       # Total bandwidth to/from this memory (bytes/s)
system.mem_ctrls2.bw_total::total            96049895                       # Total bandwidth to/from this memory (bytes/s)
system.mem_ctrls2.readReqs                     385551                       # Number of read requests accepted
system.mem_ctrls2.writeReqs                    395765                       # Number of write requests accepted
system.mem_ctrls2.readBursts                   385551                       # Number of DRAM read bursts, including those serviced by the write queue
system.mem_ctrls2.writeBursts                  395765                       # Number of DRAM write bursts, including those merged in the write queue
system.mem_ctrls2.bytesReadDRAM              18045184                       # Total number of bytes read from DRAM
system.mem_ctrls2.bytesReadWrQ                6630080                       # Total number of bytes read from write queue
system.mem_ctrls2.bytesWritten               22673408                       # Total number of bytes written to DRAM
system.mem_ctrls2.bytesReadSys               24675264                       # Total read bytes from the system interface side
system.mem_ctrls2.bytesWrittenSys            25328960                       # Total written bytes from the system interface side
system.mem_ctrls2.servicedByWrQ                103595                       # Number of DRAM read bursts serviced by the write queue
system.mem_ctrls2.mergedWrBursts                41499                       # Number of DRAM write bursts merged with an existing one
system.mem_ctrls2.neitherReadNorWriteReqs            0                       # Number of requests that are neither read nor write
system.mem_ctrls2.perBankRdBursts::0            15295                       # Per bank write bursts
system.mem_ctrls2.perBankRdBursts::1            19801                       # Per bank write bursts
system.mem_ctrls2.perBankRdBursts::2            18831                       # Per bank write bursts
system.mem_ctrls2.perBankRdBursts::3            15958                       # Per bank write bursts
system.mem_ctrls2.perBankRdBursts::4            20601                       # Per bank write bursts
system.mem_ctrls2.perBankRdBursts::5            23896                       # Per bank write bursts
system.mem_ctrls2.perBankRdBursts::6            19927                       # Per bank write bursts
system.mem_ctrls2.perBankRdBursts::7            15846                       # Per bank write bursts
system.mem_ctrls2.perBankRdBursts::8            21274                       # Per bank write bursts
system.mem_ctrls2.perBankRdBursts::9            13335                       # Per bank write bursts
system.mem_ctrls2.perBankRdBursts::10            9085                       # Per bank write bursts
system.mem_ctrls2.perBankRdBursts::11            7892                       # Per bank write bursts
system.mem_ctrls2.perBankRdBursts::12           20210                       # Per bank write bursts
system.mem_ctrls2.perBankRdBursts::13           23375                       # Per bank write bursts
system.mem_ctrls2.perBankRdBursts::14           16809                       # Per bank write bursts
system.mem_ctrls2.perBankRdBursts::15           19821                       # Per bank write bursts
system.mem_ctrls2.perBankWrBursts::0            19097                       # Per bank write bursts
system.mem_ctrls2.perBankWrBursts::1            25376                       # Per bank write bursts
system.mem_ctrls2.perBankWrBursts::2            23243                       # Per bank write bursts
system.mem_ctrls2.perBankWrBursts::3            21233                       # Per bank write bursts
system.mem_ctrls2.perBankWrBursts::4            25740                       # Per bank write bursts
system.mem_ctrls2.perBankWrBursts::5            31031                       # Per bank write bursts
system.mem_ctrls2.perBankWrBursts::6            27292                       # Per bank write bursts
system.mem_ctrls2.perBankWrBursts::7            18230                       # Per bank write bursts
system.mem_ctrls2.perBankWrBursts::8            27424                       # Per bank write bursts
system.mem_ctrls2.perBankWrBursts::9            17581                       # Per bank write bursts
[...]
system.ruby.IFETCH.Directory.miss_type_mach_latency_hist_seqr::samples      1246681                      
system.ruby.IFETCH.Directory.miss_type_mach_latency_hist_seqr::mean   138.285044                      
system.ruby.IFETCH.Directory.miss_type_mach_latency_hist_seqr::gmean    99.338858                      
system.ruby.IFETCH.Directory.miss_type_mach_latency_hist_seqr::stdev   178.350982                      
system.ruby.IFETCH.Directory.miss_type_mach_latency_hist_seqr |     1155333     92.67%     92.67% |       53113      4.26%     96.93% |       10442      0.84%     97.77% |         733      0.06%     97.83% |       25907      2.08%     99.91% |        1121      0.09%    100.00% |          32      0.00%    100.00% |           0      0.00%    100.00% |           0      0.00%    100.00% |           0      0.00%    100.00%
system.ruby.IFETCH.Directory.miss_type_mach_latency_hist_seqr::total      1246681                      
system.ruby.RMW_Read.Directory.miss_type_mach_latency_hist_seqr::bucket_size          256                      
system.ruby.RMW_Read.Directory.miss_type_mach_latency_hist_seqr::max_bucket         2559                      
system.ruby.RMW_Read.Directory.miss_type_mach_latency_hist_seqr::samples        30300                      
system.ruby.RMW_Read.Directory.miss_type_mach_latency_hist_seqr::mean   145.156865                      
system.ruby.RMW_Read.Directory.miss_type_mach_latency_hist_seqr::gmean    97.847547                      
system.ruby.RMW_Read.Directory.miss_type_mach_latency_hist_seqr::stdev   201.269082                      
system.ruby.RMW_Read.Directory.miss_type_mach_latency_hist_seqr |       27918     92.14%     92.14% |        1236      4.08%     96.22% |         237      0.78%     97.00% |          14      0.05%     97.05% |         864      2.85%     99.90% |          31      0.10%    100.00% |           0      0.00%    100.00% |           0      0.00%    100.00% |           0      0.00%    100.00% |           0      0.00%    100.00%
system.ruby.RMW_Read.Directory.miss_type_mach_latency_hist_seqr::total        30300                      
system.ruby.Locked_RMW_Read.Directory.miss_type_mach_latency_hist_seqr::bucket_size          128                      
system.ruby.Locked_RMW_Read.Directory.miss_type_mach_latency_hist_seqr::max_bucket         1279                      
system.ruby.Locked_RMW_Read.Directory.miss_type_mach_latency_hist_seqr::samples          149                      
system.ruby.Locked_RMW_Read.Directory.miss_type_mach_latency_hist_seqr::mean   157.067114                      
system.ruby.Locked_RMW_Read.Directory.miss_type_mach_latency_hist_seqr::gmean   130.631258                      
system.ruby.Locked_RMW_Read.Directory.miss_type_mach_latency_hist_seqr::stdev   142.050032                      
system.ruby.Locked_RMW_Read.Directory.miss_type_mach_latency_hist_seqr |          33     22.15%     22.15% |         104     69.80%     91.95% |           8      5.37%     97.32% |           1      0.67%     97.99% |           1      0.67%     98.66% |           0      0.00%     98.66% |           0      0.00%     98.66% |           0      0.00%     98.66% |           0      0.00%     98.66% |           2      1.34%    100.00%
system.ruby.Locked_RMW_Read.Directory.miss_type_mach_latency_hist_seqr::total          149                      
system.ruby.Directory_Controller.GETX    |      423064     13.56%     13.56% |      381625     12.23%     25.79% |      385551     12.36%     38.15% |      368810     11.82%     49.98% |      357688     11.47%     61.44% |      398202     12.76%     74.21% |      406194     13.02%     87.23% |      398467     12.77%    100.00%
system.ruby.Directory_Controller.GETX::total      3119601                      
system.ruby.Directory_Controller.PUTX    |      423064     13.56%     13.56% |      381625     12.23%     25.79% |      385551     12.36%     38.15% |      368810     11.82%     49.98% |      357688     11.47%     61.44% |      398202     12.76%     74.21% |      406194     13.02%     87.23% |      398467     12.77%    100.00%
system.ruby.Directory_Controller.PUTX::total      3119601                      
system.ruby.Directory_Controller.DMA_READ |         347    100.00%    100.00% |           0      0.00%    100.00% |           0      0.00%    100.00% |           0      0.00%    100.00% |           0      0.00%    100.00% |           0      0.00%    100.00% |           0      0.00%    100.00% |           0      0.00%    100.00%
system.ruby.Directory_Controller.DMA_READ::total          347                      
system.ruby.Directory_Controller.DMA_WRITE |       10214     12.50%     12.50% |       10214     12.50%     25.00% |       10214     12.50%     37.50% |       10214     12.50%     50.00% |       10214     12.50%     62.50% |       10214     12.50%     75.00% |       10214     12.50%     87.50% |       10214     12.50%    100.00%
system.ruby.Directory_Controller.DMA_WRITE::total        81712                      
system.ruby.Directory_Controller.Memory_Data |      423192     13.57%     13.57% |      381625     12.23%     25.80% |      385551     12.36%     38.16% |      368810     11.82%     49.98% |      357688     11.47%     61.44% |      398202     12.76%     74.21% |      406194     13.02%     87.23% |      398467     12.77%    100.00%
system.ruby.Directory_Controller.Memory_Data::total      3119729                      
system.ruby.Directory_Controller.Memory_Ack |      433278     13.53%     13.53% |      391839     12.24%     25.77% |      395765     12.36%     38.14% |      379024     11.84%     49.98% |      367902     11.49%     61.47% |      408416     12.76%     74.23% |      416408     13.01%     87.23% |      408681     12.77%    100.00%
system.ruby.Directory_Controller.Memory_Ack::total      3201313                      
system.ruby.Directory_Controller.I.GETX  |      423064     13.56%     13.56% |      381625     12.23%     25.79% |      385551     12.36%     38.15% |      368810     11.82%     49.98% |      357688     11.47%     61.44% |      398202     12.76%     74.21% |      406194     13.02%     87.23% |      398467     12.77%    100.00%
system.ruby.Directory_Controller.I.GETX::total      3119601                      
system.ruby.Directory_Controller.I.DMA_READ |         128    100.00%    100.00% |           0      0.00%    100.00% |           0      0.00%    100.00% |           0      0.00%    100.00% |           0      0.00%    100.00% |           0      0.00%    100.00% |           0      0.00%    100.00% |           0      0.00%    100.00%
system.ruby.Directory_Controller.I.DMA_READ::total          128                      
system.ruby.Directory_Controller.I.DMA_WRITE |       10214     12.50%     12.50% |       10214     12.50%     25.00% |       10214     12.50%     37.50% |       10214     12.50%     50.00% |       10214     12.50%     62.50% |       10214     12.50%     75.00% |       10214     12.50%     87.50% |       10214     12.50%    100.00%
system.ruby.Directory_Controller.I.DMA_WRITE::total        81712                      
system.ruby.Directory_Controller.M.PUTX  |      422845     13.56%     13.56% |      381625     12.23%     25.79% |      385551     12.36%     38.15% |      368810     11.82%     49.97% |      357688     11.47%     61.44% |      398202     12.77%     74.20% |      406194     13.02%     87.23% |      398467     12.77%    100.00%
system.ruby.Directory_Controller.M.PUTX::total      3119382                      
system.ruby.Directory_Controller.M.DMA_READ |         219    100.00%    100.00% |           0      0.00%    100.00% |           0      0.00%    100.00% |           0      0.00%    100.00% |           0      0.00%    100.00% |           0      0.00%    100.00% |           0      0.00%    100.00% |           0      0.00%    100.00%
system.ruby.Directory_Controller.M.DMA_READ::total          219                      
system.ruby.Directory_Controller.M_DRD.PUTX |         219    100.00%    100.00% |           0      0.00%    100.00% |           0      0.00%    100.00% |           0      0.00%    100.00% |           0      0.00%    100.00% |           0      0.00%    100.00% |           0      0.00%    100.00% |           0      0.00%    100.00%
system.ruby.Directory_Controller.M_DRD.PUTX::total          219                      
system.ruby.Directory_Controller.M_DRDI.Memory_Ack |         219    100.00%    100.00% |           0      0.00%    100.00% |           0      0.00%    100.00% |           0      0.00%    100.00% |           0      0.00%    100.00% |           0      0.00%    100.00% |           0      0.00%    100.00% |           0      0.00%    100.00%
system.ruby.Directory_Controller.M_DRDI.Memory_Ack::total          219                      
system.ruby.Directory_Controller.IM.Memory_Data |      423064     13.56%     13.56% |      381625     12.23%     25.79% |      385551     12.36%     38.15% |      368810     11.82%     49.98% |      357688     11.47%     61.44% |      398202     12.76%     74.21% |      406194     13.02%     87.23% |      398467     12.77%    100.00%
system.ruby.Directory_Controller.IM.Memory_Data::total      3119601                      
system.ruby.Directory_Controller.MI.Memory_Ack |      422845     13.56%     13.56% |      381625     12.23%     25.79% |      385551     12.36%     38.15% |      368810     11.82%     49.97% |      357688     11.47%     61.44% |      398202     12.77%     74.20% |      406194     13.02%     87.23% |      398467     12.77%    100.00%
system.ruby.Directory_Controller.MI.Memory_Ack::total      3119382                      
system.ruby.Directory_Controller.ID.Memory_Data |         128    100.00%    100.00% |           0      0.00%    100.00% |           0      0.00%    100.00% |           0      0.00%    100.00% |           0      0.00%    100.00% |           0      0.00%    100.00% |           0      0.00%    100.00% |           0      0.00%    100.00%
system.ruby.Directory_Controller.ID.Memory_Data::total          128                      
system.ruby.Directory_Controller.ID_W.Memory_Ack |       10214     12.50%     12.50% |       10214     12.50%     25.00% |       10214     12.50%     37.50% |       10214     12.50%     50.00% |       10214     12.50%     62.50% |       10214     12.50%     75.00% |       10214     12.50%     87.50% |       10214     12.50%    100.00%
system.ruby.Directory_Controller.ID_W.Memory_Ack::total        81712                      
system.ruby.DMA_Controller.ReadRequest   |         347    100.00%    100.00% |           0      0.00%    100.00%
system.ruby.DMA_Controller.ReadRequest::total          347                      
system.ruby.DMA_Controller.WriteRequest  |       81712    100.00%    100.00% |           0      0.00%    100.00%
system.ruby.DMA_Controller.WriteRequest::total        81712                      
system.ruby.DMA_Controller.Data          |         347    100.00%    100.00% |           0      0.00%    100.00%
system.ruby.DMA_Controller.Data::total            347                      
system.ruby.DMA_Controller.Ack           |       81712    100.00%    100.00% |           0      0.00%    100.00%
system.ruby.DMA_Controller.Ack::total           81712                      
system.ruby.DMA_Controller.READY.ReadRequest |         347    100.00%    100.00% |           0      0.00%    100.00%
system.ruby.DMA_Controller.READY.ReadRequest::total          347                      
system.ruby.DMA_Controller.READY.WriteRequest |       81712    100.00%    100.00% |           0      0.00%    100.00%
system.ruby.DMA_Controller.READY.WriteRequest::total        81712                      
system.ruby.DMA_Controller.BUSY_RD.Data  |         347    100.00%    100.00% |           0      0.00%    100.00%
system.ruby.DMA_Controller.BUSY_RD.Data::total          347                      
system.ruby.DMA_Controller.BUSY_WR.Ack   |       81712    100.00%    100.00% |           0      0.00%    100.00%
system.ruby.DMA_Controller.BUSY_WR.Ack::total        81712                      
system.ruby.L1Cache_Controller.Load      |    40587294    100.00%    100.00% |           0      0.00%    100.00% |           0      0.00%    100.00% |           0      0.00%    100.00% |           0      0.00%    100.00% |           0      0.00%    100.00% |           0      0.00%    100.00% |           0      0.00%    100.00%
system.ruby.L1Cache_Controller.Load::total     40587294                      
system.ruby.L1Cache_Controller.Ifetch    |   211360741    100.00%    100.00% |           0      0.00%    100.00% |           0      0.00%    100.00% |           0      0.00%    100.00% |           0      0.00%    100.00% |           0      0.00%    100.00% |           0      0.00%    100.00% |           0      0.00%    100.00%
system.ruby.L1Cache_Controller.Ifetch::total    211360741                      
system.ruby.L1Cache_Controller.Store     |    24577786    100.00%    100.00% |           0      0.00%    100.00% |           0      0.00%    100.00% |           0      0.00%    100.00% |           0      0.00%    100.00% |           0      0.00%    100.00% |           0      0.00%    100.00% |           0      0.00%    100.00%
system.ruby.L1Cache_Controller.Store::total     24577786                      
system.ruby.L1Cache_Controller.Data      |     3119601    100.00%    100.00% |           0      0.00%    100.00% |           0      0.00%    100.00% |           0      0.00%    100.00% |           0      0.00%    100.00% |           0      0.00%    100.00% |           0      0.00%    100.00% |           0      0.00%    100.00%
system.ruby.L1Cache_Controller.Data::total      3119601                      
system.ruby.L1Cache_Controller.Inv       |         438    100.00%    100.00% |           0      0.00%    100.00% |           0      0.00%    100.00% |           0      0.00%    100.00% |           0      0.00%    100.00% |           0      0.00%    100.00% |           0      0.00%    100.00% |           0      0.00%    100.00%
system.ruby.L1Cache_Controller.Inv::total          438                      
system.ruby.L1Cache_Controller.Replacement |     3119382    100.00%    100.00% |           0      0.00%    100.00% |           0      0.00%    100.00% |           0      0.00%    100.00% |           0      0.00%    100.00% |           0      0.00%    100.00% |           0      0.00%    100.00% |           0      0.00%    100.00%
system.ruby.L1Cache_Controller.Replacement::total      3119382                      
system.ruby.L1Cache_Controller.Writeback_Ack |     3119601    100.00%    100.00% |           0      0.00%    100.00% |           0      0.00%    100.00% |           0      0.00%    100.00% |           0      0.00%    100.00% |           0      0.00%    100.00% |           0      0.00%    100.00% |           0      0.00%    100.00%
system.ruby.L1Cache_Controller.Writeback_Ack::total      3119601                      
system.ruby.L1Cache_Controller.I.Load    |     1150248    100.00%    100.00% |           0      0.00%    100.00% |           0      0.00%    100.00% |           0      0.00%    100.00% |           0      0.00%    100.00% |           0      0.00%    100.00% |           0      0.00%    100.00% |           0      0.00%    100.00%
system.ruby.L1Cache_Controller.I.Load::total      1150248                      
system.ruby.L1Cache_Controller.I.Ifetch  |     1246681    100.00%    100.00% |           0      0.00%    100.00% |           0      0.00%    100.00% |           0      0.00%    100.00% |           0      0.00%    100.00% |           0      0.00%    100.00% |           0      0.00%    100.00% |           0      0.00%    100.00%
system.ruby.L1Cache_Controller.I.Ifetch::total      1246681                      
system.ruby.L1Cache_Controller.I.Store   |      722672    100.00%    100.00% |           0      0.00%    100.00% |           0      0.00%    100.00% |           0      0.00%    100.00% |           0      0.00%    100.00% |           0      0.00%    100.00% |           0      0.00%    100.00% |           0      0.00%    100.00%
system.ruby.L1Cache_Controller.I.Store::total       722672                      
system.ruby.L1Cache_Controller.M.Load    |    39437046    100.00%    100.00% |           0      0.00%    100.00% |           0      0.00%    100.00% |           0      0.00%    100.00% |           0      0.00%    100.00% |           0      0.00%    100.00% |           0      0.00%    100.00% |           0      0.00%    100.00%
system.ruby.L1Cache_Controller.M.Load::total     39437046                      
system.ruby.L1Cache_Controller.M.Ifetch  |   210114060    100.00%    100.00% |           0      0.00%    100.00% |           0      0.00%    100.00% |           0      0.00%    100.00% |           0      0.00%    100.00% |           0      0.00%    100.00% |           0      0.00%    100.00% |           0      0.00%    100.00%
system.ruby.L1Cache_Controller.M.Ifetch::total    210114060                      
system.ruby.L1Cache_Controller.M.Store   |    23855114    100.00%    100.00% |           0      0.00%    100.00% |           0      0.00%    100.00% |           0      0.00%    100.00% |           0      0.00%    100.00% |           0      0.00%    100.00% |           0      0.00%    100.00% |           0      0.00%    100.00%
system.ruby.L1Cache_Controller.M.Store::total     23855114                      
system.ruby.L1Cache_Controller.M.Inv     |         219    100.00%    100.00% |           0      0.00%    100.00% |           0      0.00%    100.00% |           0      0.00%    100.00% |           0      0.00%    100.00% |           0      0.00%    100.00% |           0      0.00%    100.00% |           0      0.00%    100.00%
system.ruby.L1Cache_Controller.M.Inv::total          219                      
system.ruby.L1Cache_Controller.M.Replacement |     3119382    100.00%    100.00% |           0      0.00%    100.00% |           0      0.00%    100.00% |           0      0.00%    100.00% |           0      0.00%    100.00% |           0      0.00%    100.00% |           0      0.00%    100.00% |           0      0.00%    100.00%
system.ruby.L1Cache_Controller.M.Replacement::total      3119382                      
system.ruby.L1Cache_Controller.MI.Inv    |         219    100.00%    100.00% |           0      0.00%    100.00% |           0      0.00%    100.00% |           0      0.00%    100.00% |           0      0.00%    100.00% |           0      0.00%    100.00% |           0      0.00%    100.00% |           0      0.00%    100.00%
system.ruby.L1Cache_Controller.MI.Inv::total          219                      
system.ruby.L1Cache_Controller.MI.Writeback_Ack |     3119601    100.00%    100.00% |           0      0.00%    100.00% |           0      0.00%    100.00% |           0      0.00%    100.00% |           0      0.00%    100.00% |           0      0.00%    100.00% |           0      0.00%    100.00% |           0      0.00%    100.00%
system.ruby.L1Cache_Controller.MI.Writeback_Ack::total      3119601                      
system.ruby.L1Cache_Controller.IS.Data   |     2396929    100.00%    100.00% |           0      0.00%    100.00% |           0      0.00%    100.00% |           0      0.00%    100.00% |           0      0.00%    100.00% |           0      0.00%    100.00% |           0      0.00%    100.00% |           0      0.00%    100.00%
system.ruby.L1Cache_Controller.IS.Data::total      2396929                      
system.ruby.L1Cache_Controller.IM.Data   |      722672    100.00%    100.00% |           0      0.00%    100.00% |           0      0.00%    100.00% |           0      0.00%    100.00% |           0      0.00%    100.00% |           0      0.00%    100.00% |           0      0.00%    100.00% |           0      0.00%    100.00%
system.ruby.L1Cache_Controller.IM.Data::total       722672                      

---------- End Simulation Statistics   ----------
