
---------- Begin Simulation Statistics ----------
sim_seconds                                  0.404646                       # Number of seconds simulated
sim_ticks                                404646309500                       # Number of ticks simulated
final_tick                               5774036022500                       # Number of ticks from beginning of simulation (restored from checkpoints and never reset)
sim_freq                                 1000000000000                       # Frequency of simulated ticks
host_inst_rate                                 630217                       # Simulator instruction rate (inst/s)
host_op_rate                                  1162793                       # Simulator op (including micro ops) rate (op/s)
host_tick_rate                              850049368                       # Simulator tick rate (ticks/s)
host_mem_usage                                1851664                       # Number of bytes of host memory used
host_seconds                                   476.03                       # Real time elapsed on the host
sim_insts                                   300000000                       # Number of instructions simulated
sim_ops                                     553520527                       # Number of ops (including micro ops) simulated
system.voltage_domain.voltage                       1                       # Voltage in Volts
system.clk_domain.clock                          1000                       # Clock period in ticks
system.mem_ctrls0.pwrStateResidencyTicks::UNDEFINED 5774036022500                       # Cumulative time (in ticks) in various power states
system.mem_ctrls0.bytes_read::ruby.dir_cntrl0     12880512                       # Number of bytes read from this memory
system.mem_ctrls0.bytes_read::total          12880512                       # Number of bytes read from this memory
system.mem_ctrls0.bytes_written::ruby.dir_cntrl0     13087296                       # Number of bytes written to this memory
system.mem_ctrls0.bytes_written::total       13087296                       # Number of bytes written to this memory
system.mem_ctrls0.num_reads::ruby.dir_cntrl0       201258                       # Number of read requests responded to by this memory
system.mem_ctrls0.num_reads::total             201258                       # Number of read requests responded to by this memory
system.mem_ctrls0.num_writes::ruby.dir_cntrl0       204489                       # Number of write requests responded to by this memory
system.mem_ctrls0.num_writes::total            204489                       # Number of write requests responded to by this memory
system.mem_ctrls0.bw_read::ruby.dir_cntrl0     31831532                       # Total read bandwidth from this memory (bytes/s)
system.mem_ctrls0.bw_read::total             31831532                       # Total read bandwidth from this memory (bytes/s)
system.mem_ctrls0.bw_write::ruby.dir_cntrl0     32342556                       # Write bandwidth from this memory (bytes/s)
system.mem_ctrls0.bw_write::total            32342556                       # Write bandwidth from this memory (bytes/s)
system.mem_ctrls0.bw_total::ruby.dir_cntrl0     64174088                       # Total bandwidth to/from this memory (bytes/s)
system.mem_ctrls0.bw_total::total            64174088                       # Total bandwidth to/from this memory (bytes/s)
system.mem_ctrls0.readReqs                     201258                       # Number of read requests accepted
system.mem_ctrls0.writeReqs                    204489                       # Number of write requests accepted
system.mem_ctrls0.readBursts                   201258                       # Number of DRAM read bursts, including those serviced by the write queue
system.mem_ctrls0.writeBursts                  204489                       # Number of DRAM write bursts, including those merged in the write queue
system.mem_ctrls0.bytesReadDRAM               9737344                       # Total number of bytes read from DRAM
system.mem_ctrls0.bytesReadWrQ                3143168                       # Total number of bytes read from write queue
system.mem_ctrls0.bytesWritten               11285824                       # Total number of bytes written to DRAM
system.mem_ctrls0.bytesReadSys               12880512                       # Total read bytes from the system interface side
system.mem_ctrls0.bytesWrittenSys            13087296                       # Total written bytes from the system interface side
system.mem_ctrls0.servicedByWrQ                 49112                       # Number of DRAM read bursts serviced by the write queue
system.mem_ctrls0.mergedWrBursts                28144                       # Number of DRAM write bursts merged with an existing one
system.mem_ctrls0.neitherReadNorWriteReqs            0                       # Number of requests that are neither read nor write
system.mem_ctrls0.perBankRdBursts::0            14281                       # Per bank write bursts
system.mem_ctrls0.perBankRdBursts::1            10730                       # Per bank write bursts
system.mem_ctrls0.perBankRdBursts::2            12333                       # Per bank write bursts
system.mem_ctrls0.perBankRdBursts::3             8833                       # Per bank write bursts
system.mem_ctrls0.perBankRdBursts::4            12620                       # Per bank write bursts
system.mem_ctrls0.perBankRdBursts::5            14176                       # Per bank write bursts
system.mem_ctrls0.perBankRdBursts::6            13364                       # Per bank write bursts
system.mem_ctrls0.perBankRdBursts::7            11091                       # Per bank write bursts
system.mem_ctrls0.perBankRdBursts::8             2864                       # Per bank write bursts
system.mem_ctrls0.perBankRdBursts::9             3715                       # Per bank write bursts
system.mem_ctrls0.perBankRdBursts::10            4558                       # Per bank write bursts
system.mem_ctrls0.perBankRdBursts::11            3424                       # Per bank write bursts
system.mem_ctrls0.perBankRdBursts::12            4134                       # Per bank write bursts
system.mem_ctrls0.perBankRdBursts::13           14759                       # Per bank write bursts
system.mem_ctrls0.perBankRdBursts::14           11168                       # Per bank write bursts
system.mem_ctrls0.perBankRdBursts::15           10096                       # Per bank write bursts
system.mem_ctrls0.perBankWrBursts::0            15999                       # Per bank write bursts
system.mem_ctrls0.perBankWrBursts::1            12625                       # Per bank write bursts
system.mem_ctrls0.perBankWrBursts::2            14757                       # Per bank write bursts
system.mem_ctrls0.perBankWrBursts::3             9837                       # Per bank write bursts
system.mem_ctrls0.perBankWrBursts::4            14175                       # Per bank write bursts
system.mem_ctrls0.perBankWrBursts::5            17290                       # Per bank write bursts
system.mem_ctrls0.perBankWrBursts::6            15884                       # Per bank write bursts
system.mem_ctrls0.perBankWrBursts::7            12719                       # Per bank write bursts
system.mem_ctrls0.perBankWrBursts::8             3928                       # Per bank write bursts
system.mem_ctrls0.perBankWrBursts::9             4293                       # Per bank write bursts
system.mem_ctrls0.perBankWrBursts::10            5965                       # Per bank write bursts
system.mem_ctrls0.perBankWrBursts::11            3922                       # Per bank write bursts
system.mem_ctrls0.perBankWrBursts::12            4640                       # Per bank write bursts
system.mem_ctrls0.perBankWrBursts::13           16330                       # Per bank write bursts
system.mem_ctrls0.perBankWrBursts::14           12348                       # Per bank write bursts
system.mem_ctrls0.perBankWrBursts::15           11629                       # Per bank write bursts
system.mem_ctrls0.numRdRetry                        0                       # Number of times read queue was full causing retry
system.mem_ctrls0.numWrRetry                        0                       # Number of times write queue was full causing retry
system.mem_ctrls0.totGap                 404358210000                       # Total gap between requests
system.mem_ctrls0.readPktSize::0                    0                       # Read request sizes (log2)
system.mem_ctrls0.readPktSize::1                    0                       # Read request sizes (log2)
system.mem_ctrls0.readPktSize::2                    0                       # Read request sizes (log2)
system.mem_ctrls0.readPktSize::3                    0                       # Read request sizes (log2)
system.mem_ctrls0.readPktSize::4                    0                       # Read request sizes (log2)
system.mem_ctrls0.readPktSize::5                    0                       # Read request sizes (log2)
system.mem_ctrls0.readPktSize::6               201258                       # Read request sizes (log2)
system.mem_ctrls0.writePktSize::0                   0                       # Write request sizes (log2)
system.mem_ctrls0.writePktSize::1                   0                       # Write request sizes (log2)
system.mem_ctrls0.writePktSize::2                   0                       # Write request sizes (log2)
system.mem_ctrls0.writePktSize::3                   0                       # Write request sizes (log2)
system.mem_ctrls0.writePktSize::4                   0                       # Write request sizes (log2)
system.mem_ctrls0.writePktSize::5                   0                       # Write request sizes (log2)
system.mem_ctrls0.writePktSize::6              204489                       # Write request sizes (log2)
system.mem_ctrls0.rdQLenPdf::0                 152139                       # What read queue length does an incoming req see
system.mem_ctrls0.rdQLenPdf::1                      7                       # What read queue length does an incoming req see
system.mem_ctrls0.rdQLenPdf::2                      0                       # What read queue length does an incoming req see
system.mem_ctrls0.rdQLenPdf::3                      0                       # What read queue length does an incoming req see
system.mem_ctrls0.rdQLenPdf::4                      0                       # What read queue length does an incoming req see
system.mem_ctrls0.rdQLenPdf::5                      0                       # What read queue length does an incoming req see
system.mem_ctrls0.rdQLenPdf::6                      0                       # What read queue length does an incoming req see
system.mem_ctrls0.rdQLenPdf::7                      0                       # What read queue length does an incoming req see
system.mem_ctrls0.rdQLenPdf::8                      0                       # What read queue length does an incoming req see
system.mem_ctrls0.rdQLenPdf::9                      0                       # What read queue length does an incoming req see
system.mem_ctrls0.rdQLenPdf::10                     0                       # What read queue length does an incoming req see
system.mem_ctrls0.rdQLenPdf::11                     0                       # What read queue length does an incoming req see
system.mem_ctrls0.rdQLenPdf::12                     0                       # What read queue length does an incoming req see
system.mem_ctrls0.rdQLenPdf::13                     0                       # What read queue length does an incoming req see
system.mem_ctrls0.rdQLenPdf::14                     0                       # What read queue length does an incoming req see
system.mem_ctrls0.rdQLenPdf::15                     0                       # What read queue length does an incoming req see
system.mem_ctrls0.rdQLenPdf::16                     0                       # What read queue length does an incoming req see
system.mem_ctrls0.rdQLenPdf::17                     0                       # What read queue length does an incoming req see
system.mem_ctrls0.rdQLenPdf::18                     0                       # What read queue length does an incoming req see
system.mem_ctrls0.rdQLenPdf::19                     0                       # What read queue length does an incoming req see
system.mem_ctrls0.rdQLenPdf::20                     0                       # What read queue length does an incoming req see
system.mem_ctrls0.rdQLenPdf::21                     0                       # What read queue length does an incoming req see
system.mem_ctrls0.rdQLenPdf::22                     0                       # What read queue length does an incoming req see
system.mem_ctrls0.rdQLenPdf::23                     0                       # What read queue length does an incoming req see
system.mem_ctrls0.rdQLenPdf::24                     0                       # What read queue length does an incoming req see
system.mem_ctrls0.rdQLenPdf::25                     0                       # What read queue length does an incoming req see
system.mem_ctrls0.rdQLenPdf::26                     0                       # What read queue length does an incoming req see
system.mem_ctrls0.rdQLenPdf::27                     0                       # What read queue length does an incoming req see
system.mem_ctrls0.rdQLenPdf::28                     0                       # What read queue length does an incoming req see
system.mem_ctrls0.rdQLenPdf::29                     0                       # What read queue length does an incoming req see
system.mem_ctrls0.rdQLenPdf::30                     0                       # What read queue length does an incoming req see
system.mem_ctrls0.rdQLenPdf::31                     0                       # What read queue length does an incoming req see
system.mem_ctrls0.wrQLenPdf::0                      0                       # What write queue length does an incoming req see
system.mem_ctrls0.wrQLenPdf::1                      0                       # What write queue length does an incoming req see
system.mem_ctrls0.wrQLenPdf::2                      0                       # What write queue length does an incoming req see
system.mem_ctrls0.wrQLenPdf::3                      0                       # What write queue length does an incoming req see
system.mem_ctrls0.wrQLenPdf::4                      0                       # What write queue length does an incoming req see
system.mem_ctrls0.wrQLenPdf::5                      0                       # What write queue length does an incoming req see
system.mem_ctrls0.wrQLenPdf::6                      0                       # What write queue length does an incoming req see
system.mem_ctrls0.wrQLenPdf::7                      0                       # What write queue length does an incoming req see
system.mem_ctrls0.wrQLenPdf::8                      0                       # What write queue length does an incoming req see
system.mem_ctrls0.wrQLenPdf::9                      0                       # What write queue length does an incoming req see
system.mem_ctrls0.wrQLenPdf::10                     0                       # What write queue length does an incoming req see
system.mem_ctrls0.wrQLenPdf::11                     0                       # What write queue length does an incoming req see
system.mem_ctrls0.wrQLenPdf::12                     0                       # What write queue length does an incoming req see
system.mem_ctrls0.wrQLenPdf::13                     0                       # What write queue length does an incoming req see
system.mem_ctrls0.wrQLenPdf::14                     0                       # What write queue length does an incoming req see
system.mem_ctrls0.wrQLenPdf::15                  1511                       # What write queue length does an incoming req see
system.mem_ctrls0.wrQLenPdf::16                  1588                       # What write queue length does an incoming req see
system.mem_ctrls0.wrQLenPdf::17                 10602                       # What write queue length does an incoming req see
system.mem_ctrls0.wrQLenPdf::18                 10787                       # What write queue length does an incoming req see
system.mem_ctrls0.wrQLenPdf::19                 10820                       # What write queue length does an incoming req see
system.mem_ctrls0.wrQLenPdf::20                 10840                       # What write queue length does an incoming req see
system.mem_ctrls0.wrQLenPdf::21                 10846                       # What write queue length does an incoming req see
system.mem_ctrls0.wrQLenPdf::22                 10848                       # What write queue length does an incoming req see
system.mem_ctrls0.wrQLenPdf::23                 10853                       # What write queue length does an incoming req see
system.mem_ctrls0.wrQLenPdf::24                 10842                       # What write queue length does an incoming req see
system.mem_ctrls0.wrQLenPdf::25                 10880                       # What write queue length does an incoming req see
system.mem_ctrls0.wrQLenPdf::26                 10885                       # What write queue length does an incoming req see
system.mem_ctrls0.wrQLenPdf::27                 10889                       # What write queue length does an incoming req see
system.mem_ctrls0.wrQLenPdf::28                 10868                       # What write queue length does an incoming req see
system.mem_ctrls0.wrQLenPdf::29                 10820                       # What write queue length does an incoming req see
system.mem_ctrls0.wrQLenPdf::30                 10766                       # What write queue length does an incoming req see
system.mem_ctrls0.wrQLenPdf::31                 10745                       # What write queue length does an incoming req see
system.mem_ctrls0.wrQLenPdf::32                 10746                       # What write queue length does an incoming req see
system.mem_ctrls0.wrQLenPdf::33                    27                       # What write queue length does an incoming req see
system.mem_ctrls0.wrQLenPdf::34                    16                       # What write queue length does an incoming req see
system.mem_ctrls0.wrQLenPdf::35                    11                       # What write queue length does an incoming req see
system.mem_ctrls0.wrQLenPdf::36                    10                       # What write queue length does an incoming req see
system.mem_ctrls0.wrQLenPdf::37                    13                       # What write queue length does an incoming req see
system.mem_ctrls0.wrQLenPdf::38                    15                       # What write queue length does an incoming req see
system.mem_ctrls0.wrQLenPdf::39                    14                       # What write queue length does an incoming req see
system.mem_ctrls0.wrQLenPdf::40                    15                       # What write queue length does an incoming req see
system.mem_ctrls0.wrQLenPdf::41                    13                       # What write queue length does an incoming req see
system.mem_ctrls0.wrQLenPdf::42                    11                       # What write queue length does an incoming req see
system.mem_ctrls0.wrQLenPdf::43                    10                       # What write queue length does an incoming req see
system.mem_ctrls0.wrQLenPdf::44                    12                       # What write queue length does an incoming req see
system.mem_ctrls0.wrQLenPdf::45                     8                       # What write queue length does an incoming req see
system.mem_ctrls0.wrQLenPdf::46                     5                       # What write queue length does an incoming req see
system.mem_ctrls0.wrQLenPdf::47                     4                       # What write queue length does an incoming req see
system.mem_ctrls0.wrQLenPdf::48                     3                       # What write queue length does an incoming req see
system.mem_ctrls0.wrQLenPdf::49                     3                       # What write queue length does an incoming req see
system.mem_ctrls0.wrQLenPdf::50                     3                       # What write queue length does an incoming req see
system.mem_ctrls0.wrQLenPdf::51                     3                       # What write queue length does an incoming req see
system.mem_ctrls0.wrQLenPdf::52                     3                       # What write queue length does an incoming req see
system.mem_ctrls0.wrQLenPdf::53                     1                       # What write queue length does an incoming req see
system.mem_ctrls0.wrQLenPdf::54                     1                       # What write queue length does an incoming req see
system.mem_ctrls0.wrQLenPdf::55                     2                       # What write queue length does an incoming req see
system.mem_ctrls0.wrQLenPdf::56                     3                       # What write queue length does an incoming req see
system.mem_ctrls0.wrQLenPdf::57                     2                       # What write queue length does an incoming req see
system.mem_ctrls0.wrQLenPdf::58                     1                       # What write queue length does an incoming req see
system.mem_ctrls0.wrQLenPdf::59                     0                       # What write queue length does an incoming req see
system.mem_ctrls0.wrQLenPdf::60                     0                       # What write queue length does an incoming req see
system.mem_ctrls0.wrQLenPdf::61                     0                       # What write queue length does an incoming req see
system.mem_ctrls0.wrQLenPdf::62                     0                       # What write queue length does an incoming req see
system.mem_ctrls0.wrQLenPdf::63                     0                       # What write queue length does an incoming req see
system.mem_ctrls0.bytesPerActivate::samples       171094                       # Bytes accessed per row activation
system.mem_ctrls0.bytesPerActivate::mean   122.879446                       # Bytes accessed per row activation
system.mem_ctrls0.bytesPerActivate::gmean    98.520217                       # Bytes accessed per row activation
system.mem_ctrls0.bytesPerActivate::stdev   105.480806                       # Bytes accessed per row activation
system.mem_ctrls0.bytesPerActivate::0-127       102752     60.06%     60.06% # Bytes accessed per row activation
system.mem_ctrls0.bytesPerActivate::128-255        47049     27.50%     87.55% # Bytes accessed per row activation
system.mem_ctrls0.bytesPerActivate::256-383        14217      8.31%     95.86% # Bytes accessed per row activation
system.mem_ctrls0.bytesPerActivate::384-511         4439      2.59%     98.46% # Bytes accessed per row activation
system.mem_ctrls0.bytesPerActivate::512-639         1658      0.97%     99.43% # Bytes accessed per row activation
system.mem_ctrls0.bytesPerActivate::640-767          470      0.27%     99.70% # Bytes accessed per row activation
system.mem_ctrls0.bytesPerActivate::768-895          204      0.12%     99.82% # Bytes accessed per row activation
system.mem_ctrls0.bytesPerActivate::896-1023          105      0.06%     99.88% # Bytes accessed per row activation
system.mem_ctrls0.bytesPerActivate::1024-1151          200      0.12%    100.00% # Bytes accessed per row activation
system.mem_ctrls0.bytesPerActivate::total       171094                       # Bytes accessed per row activation
system.mem_ctrls0.rdPerTurnAround::samples        10738                       # Reads before turning the bus around for writes
system.mem_ctrls0.rdPerTurnAround::mean     14.169026                       # Reads before turning the bus around for writes
system.mem_ctrls0.rdPerTurnAround::stdev     2.338461                       # Reads before turning the bus around for writes
system.mem_ctrls0.rdPerTurnAround::0               17      0.16%      0.16% # Reads before turning the bus around for writes
system.mem_ctrls0.rdPerTurnAround::1               28      0.26%      0.42% # Reads before turning the bus around for writes
system.mem_ctrls0.rdPerTurnAround::2               17      0.16%      0.58% # Reads before turning the bus around for writes
system.mem_ctrls0.rdPerTurnAround::3               15      0.14%      0.72% # Reads before turning the bus around for writes
system.mem_ctrls0.rdPerTurnAround::4               12      0.11%      0.83% # Reads before turning the bus around for writes
system.mem_ctrls0.rdPerTurnAround::5               12      0.11%      0.94% # Reads before turning the bus around for writes
system.mem_ctrls0.rdPerTurnAround::6               24      0.22%      1.16% # Reads before turning the bus around for writes
system.mem_ctrls0.rdPerTurnAround::7               37      0.34%      1.51% # Reads before turning the bus around for writes
system.mem_ctrls0.rdPerTurnAround::8               88      0.82%      2.33% # Reads before turning the bus around for writes
system.mem_ctrls0.rdPerTurnAround::9              178      1.66%      3.99% # Reads before turning the bus around for writes
system.mem_ctrls0.rdPerTurnAround::10             269      2.51%      6.49% # Reads before turning the bus around for writes
system.mem_ctrls0.rdPerTurnAround::11             428      3.99%     10.48% # Reads before turning the bus around for writes
system.mem_ctrls0.rdPerTurnAround::12             846      7.88%     18.36% # Reads before turning the bus around for writes
system.mem_ctrls0.rdPerTurnAround::13            1219     11.35%     29.71% # Reads before turning the bus around for writes
system.mem_ctrls0.rdPerTurnAround::14            1732     16.13%     45.84% # Reads before turning the bus around for writes
system.mem_ctrls0.rdPerTurnAround::15            2291     21.34%     67.17% # Reads before turning the bus around for writes
system.mem_ctrls0.rdPerTurnAround::16            2856     26.60%     93.77% # Reads before turning the bus around for writes
system.mem_ctrls0.rdPerTurnAround::17             543      5.06%     98.83% # Reads before turning the bus around for writes
system.mem_ctrls0.rdPerTurnAround::18             114      1.06%     99.89% # Reads before turning the bus around for writes
system.mem_ctrls0.rdPerTurnAround::19               8      0.07%     99.96% # Reads before turning the bus around for writes
system.mem_ctrls0.rdPerTurnAround::20               2      0.02%     99.98% # Reads before turning the bus around for writes
system.mem_ctrls0.rdPerTurnAround::21               2      0.02%    100.00% # Reads before turning the bus around for writes
system.mem_ctrls0.rdPerTurnAround::total        10738                       # Reads before turning the bus around for writes
system.mem_ctrls0.wrPerTurnAround::samples        10738                       # Writes before turning the bus around for reads
system.mem_ctrls0.wrPerTurnAround::mean     16.422146                       # Writes before turning the bus around for reads
system.mem_ctrls0.wrPerTurnAround::gmean    16.362474                       # Writes before turning the bus around for reads
system.mem_ctrls0.wrPerTurnAround::stdev     1.846120                       # Writes before turning the bus around for reads
system.mem_ctrls0.wrPerTurnAround::16-17         9182     85.51%     85.51% # Writes before turning the bus around for reads
system.mem_ctrls0.wrPerTurnAround::18-19         1454     13.54%     99.05% # Writes before turning the bus around for reads
system.mem_ctrls0.wrPerTurnAround::20-21           17      0.16%     99.21% # Writes before turning the bus around for reads
system.mem_ctrls0.wrPerTurnAround::22-23            4      0.04%     99.25% # Writes before turning the bus around for reads
system.mem_ctrls0.wrPerTurnAround::24-25           10      0.09%     99.34% # Writes before turning the bus around for reads
system.mem_ctrls0.wrPerTurnAround::26-27            4      0.04%     99.38% # Writes before turning the bus around for reads
system.mem_ctrls0.wrPerTurnAround::28-29           14      0.13%     99.51% # Writes before turning the bus around for reads
system.mem_ctrls0.wrPerTurnAround::30-31           16      0.15%     99.66% # Writes before turning the bus around for reads
system.mem_ctrls0.wrPerTurnAround::32-33           17      0.16%     99.81% # Writes before turning the bus around for reads
system.mem_ctrls0.wrPerTurnAround::34-35            3      0.03%     99.84% # Writes before turning the bus around for reads
system.mem_ctrls0.wrPerTurnAround::36-37            6      0.06%     99.90% # Writes before turning the bus around for reads
system.mem_ctrls0.wrPerTurnAround::38-39            1      0.01%     99.91% # Writes before turning the bus around for reads
system.mem_ctrls0.wrPerTurnAround::40-41            2      0.02%     99.93% # Writes before turning the bus around for reads
system.mem_ctrls0.wrPerTurnAround::42-43            2      0.02%     99.94% # Writes before turning the bus around for reads
system.mem_ctrls0.wrPerTurnAround::46-47            2      0.02%     99.96% # Writes before turning the bus around for reads
system.mem_ctrls0.wrPerTurnAround::64-65            1      0.01%     99.97% # Writes before turning the bus around for reads
system.mem_ctrls0.wrPerTurnAround::66-67            1      0.01%     99.98% # Writes before turning the bus around for reads
system.mem_ctrls0.wrPerTurnAround::72-73            1      0.01%     99.99% # Writes before turning the bus around for reads
system.mem_ctrls0.wrPerTurnAround::76-77            1      0.01%    100.00% # Writes before turning the bus around for reads
system.mem_ctrls0.wrPerTurnAround::total        10738                       # Writes before turning the bus around for reads
system.mem_ctrls0.totQLat                  6454706750                       # Total ticks spent queuing
system.mem_ctrls0.totMemAccLat             9307444250                       # Total ticks spent from burst creation until serviced by the DRAM
system.mem_ctrls0.totBusLat                 760730000                       # Total ticks spent in databus transfers
system.mem_ctrls0.avgQLat                    42424.43                       # Average queueing delay per DRAM burst
system.mem_ctrls0.avgBusLat                   5000.00                       # Average bus latency per DRAM burst
system.mem_ctrls0.avgMemAccLat               61174.43                       # Average memory access latency per DRAM burst
system.mem_ctrls0.avgRdBW                       24.06                       # Average DRAM read bandwidth in MiByte/s
system.mem_ctrls0.avgWrBW                       27.89                       # Average achieved write bandwidth in MiByte/s
system.mem_ctrls0.avgRdBWSys                    31.83                       # Average system read bandwidth in MiByte/s
system.mem_ctrls0.avgWrBWSys                    32.34                       # Average system write bandwidth in MiByte/s
system.mem_ctrls0.peakBW                     12800.00                       # Theoretical peak bandwidth in MiByte/s
system.mem_ctrls0.busUtil                        0.41                       # Data bus utilization in percentage
system.mem_ctrls0.busUtilRead                    0.19                       # Data bus utilization in percentage for reads
system.mem_ctrls0.busUtilWrite                   0.22                       # Data bus utilization in percentage for writes
system.mem_ctrls0.avgRdQLen                      1.00                       # Average read queue length when enqueuing
system.mem_ctrls0.avgWrQLen                     26.05                       # Average write queue length when enqueuing
system.mem_ctrls0.readRowHits                   62401                       # Number of row buffer hits during reads
system.mem_ctrls0.writeRowHits                  95000                       # Number of row buffer hits during writes
system.mem_ctrls0.readRowHitRate                41.01                       # Row buffer hit rate for reads
system.mem_ctrls0.writeRowHitRate               53.87                       # Row buffer hit rate for writes
system.mem_ctrls0.avgGap                    996577.20                       # Average gap between requests
system.mem_ctrls0.pageHitRate                   47.92                       # Row buffer hit rate, read and write combined
system.mem_ctrls0_0.actEnergy              2125071060                       # Energy for activate commands per rank (pJ)
system.mem_ctrls0_0.preEnergy              1129502055                       # Energy for precharge commands per rank (pJ)
system.mem_ctrls0_0.readEnergy             2149090020                       # Energy for read commands per rank (pJ)
system.mem_ctrls0_0.writeEnergy            1755903600                       # Energy for write commands per rank (pJ)
system.mem_ctrls0_0.refreshEnergy        39594494160.000008                       # Energy for refresh commands per rank (pJ)
system.mem_ctrls0_0.actBackEnergy         24598436640                       # Energy for active background per rank (pJ)
system.mem_ctrls0_0.preBackEnergy          1386044160                       # Energy for precharge background per rank (pJ)
system.mem_ctrls0_0.actPowerDownEnergy   138103073580                       # Energy for active power-down per rank (pJ)
system.mem_ctrls0_0.prePowerDownEnergy    39303852480                       # Energy for precharge power-down per rank (pJ)
system.mem_ctrls0_0.selfRefreshEnergy    1277664124725                       # Energy for self refresh per rank (pJ)
system.mem_ctrls0_0.totalEnergy          1527819397230                       # Total energy per rank (pJ)
system.mem_ctrls0_0.averagePower           264.601639                       # Core power per rank (mW)
system.mem_ctrls0_0.totalIdleTime        363645574750                       # Total Idle time Per DRAM Rank
system.mem_ctrls0_0.memoryStateTime::IDLE    882212750                       # Time in different power states
system.mem_ctrls0_0.memoryStateTime::REF   6579180000                       # Time in different power states
system.mem_ctrls0_0.memoryStateTime::SREF 226257480250                       # Time in different power states
system.mem_ctrls0_0.memoryStateTime::PRE_PDN  43104470250                       # Time in different power states
system.mem_ctrls0_0.memoryStateTime::ACT  14002727250                       # Time in different power states
system.mem_ctrls0_0.memoryStateTime::ACT_PDN 113821065250                       # Time in different power states
system.mem_ctrls0_1.actEnergy              1363711440                       # Energy for activate commands per rank (pJ)
system.mem_ctrls0_1.preEnergy               724829820                       # Energy for precharge commands per rank (pJ)
system.mem_ctrls0_1.readEnergy             1345882860                       # Energy for read commands per rank (pJ)
system.mem_ctrls0_1.writeEnergy            1086741360                       # Energy for write commands per rank (pJ)
system.mem_ctrls0_1.refreshEnergy        40478961120.000008                       # Energy for refresh commands per rank (pJ)
system.mem_ctrls0_1.actBackEnergy         28075915440                       # Energy for active background per rank (pJ)
system.mem_ctrls0_1.preBackEnergy          1758219840                       # Energy for precharge background per rank (pJ)
system.mem_ctrls0_1.actPowerDownEnergy   113821719960                       # Energy for active power-down per rank (pJ)
system.mem_ctrls0_1.prePowerDownEnergy    53789555040                       # Energy for precharge power-down per rank (pJ)
system.mem_ctrls0_1.selfRefreshEnergy    1280711527845                       # Energy for self refresh per rank (pJ)
system.mem_ctrls0_1.totalEnergy          1523177352735                       # Total energy per rank (pJ)
system.mem_ctrls0_1.averagePower           263.797688                       # Core power per rank (mW)
system.mem_ctrls0_1.totalIdleTime        361540060500                       # Total Idle time Per DRAM Rank
system.mem_ctrls0_1.memoryStateTime::IDLE   1342320500                       # Time in different power states
system.mem_ctrls0_1.memoryStateTime::REF   6759320000                       # Time in different power states
system.mem_ctrls0_1.memoryStateTime::SREF 230722671500                       # Time in different power states
system.mem_ctrls0_1.memoryStateTime::PRE_PDN  58226874750                       # Time in different power states
system.mem_ctrls0_1.memoryStateTime::ACT  15471216500                       # Time in different power states
system.mem_ctrls0_1.memoryStateTime::ACT_PDN  92127355250                       # Time in different power states
system.mem_ctrls1.pwrStateResidencyTicks::UNDEFINED 5774036022500                       # Cumulative time (in ticks) in various power states
system.mem_ctrls1.bytes_read::ruby.dir_cntrl1     10848256                       # Number of bytes read from this memory
system.mem_ctrls1.bytes_read::total          10848256                       # Number of bytes read from this memory
system.mem_ctrls1.bytes_written::ruby.dir_cntrl1     11058240                       # Number of bytes written to this memory
system.mem_ctrls1.bytes_written::total       11058240                       # Number of bytes written to this memory
system.mem_ctrls1.num_reads::ruby.dir_cntrl1       169504                       # Number of read requests responded to by this memory
system.mem_ctrls1.num_reads::total             169504                       # Number of read requests responded to by this memory
system.mem_ctrls1.num_writes::ruby.dir_cntrl1       172785                       # Number of write requests responded to by this memory
system.mem_ctrls1.num_writes::total            172785                       # Number of write requests responded to by this memory
system.mem_ctrls1.bw_read::ruby.dir_cntrl1     26809230                       # Total read bandwidth from this memory (bytes/s)
system.mem_ctrls1.bw_read::total             26809230                       # Total read bandwidth from this memory (bytes/s)
system.mem_ctrls1.bw_write::ruby.dir_cntrl1     27328162                       # Write bandwidth from this memory (bytes/s)
system.mem_ctrls1.bw_write::total            27328162                       # Write bandwidth from this memory (bytes/s)
system.mem_ctrls1.bw_total::ruby.dir_cntrl1     54137392                       # Total bandwidth to/from this memory (bytes/s)
system.mem_ctrls1.bw_total::total            54137392                       # Total bandwidth to/from this memory (bytes/s)
system.mem_ctrls1.readReqs                     169504                       # Number of read requests accepted
system.mem_ctrls1.writeReqs                    172785                       # Number of write requests accepted
system.mem_ctrls1.readBursts                   169504                       # Number of DRAM read bursts, including those serviced by the write queue
system.mem_ctrls1.writeBursts                  172785                       # Number of DRAM write bursts, including those merged in the write queue
system.mem_ctrls1.bytesReadDRAM               8751232                       # Total number of bytes read from DRAM
system.mem_ctrls1.bytesReadWrQ                2097024                       # Total number of bytes read from write queue
system.mem_ctrls1.bytesWritten                9969536                       # Total number of bytes written to DRAM
system.mem_ctrls1.bytesReadSys               10848256                       # Total read bytes from the system interface side
system.mem_ctrls1.bytesWrittenSys            11058240                       # Total written bytes from the system interface side
system.mem_ctrls1.servicedByWrQ                 32766                       # Number of DRAM read bursts serviced by the write queue
system.mem_ctrls1.mergedWrBursts                17010                       # Number of DRAM write bursts merged with an existing one
system.mem_ctrls1.neitherReadNorWriteReqs            0                       # Number of requests that are neither read nor write
system.mem_ctrls1.perBankRdBursts::0            11802                       # Per bank write bursts
system.mem_ctrls1.perBankRdBursts::1             9749                       # Per bank write bursts
system.mem_ctrls1.perBankRdBursts::2            10124                       # Per bank write bursts
system.mem_ctrls1.perBankRdBursts::3             8389                       # Per bank write bursts
system.mem_ctrls1.perBankRdBursts::4            12242                       # Per bank write bursts
system.mem_ctrls1.perBankRdBursts::5            12801                       # Per bank write bursts
system.mem_ctrls1.perBankRdBursts::6            11436                       # Per bank write bursts
system.mem_ctrls1.perBankRdBursts::7             9384                       # Per bank write bursts
system.mem_ctrls1.perBankRdBursts::8             2419                       # Per bank write bursts
system.mem_ctrls1.perBankRdBursts::9             3649                       # Per bank write bursts
system.mem_ctrls1.perBankRdBursts::10            4234                       # Per bank write bursts
system.mem_ctrls1.perBankRdBursts::11            3295                       # Per bank write bursts
system.mem_ctrls1.perBankRdBursts::12            3696                       # Per bank write bursts
system.mem_ctrls1.perBankRdBursts::13           14421                       # Per bank write bursts
system.mem_ctrls1.perBankRdBursts::14           10650                       # Per bank write bursts
system.mem_ctrls1.perBankRdBursts::15            8447                       # Per bank write bursts
system.mem_ctrls1.perBankWrBursts::0            12955                       # Per bank write bursts
system.mem_ctrls1.perBankWrBursts::1            11137                       # Per bank write bursts
system.mem_ctrls1.perBankWrBursts::2            11504                       # Per bank write bursts
system.mem_ctrls1.perBankWrBursts::3             9174                       # Per bank write bursts
system.mem_ctrls1.perBankWrBursts::4            13510                       # Per bank write bursts
system.mem_ctrls1.perBankWrBursts::5            15388                       # Per bank write bursts
system.mem_ctrls1.perBankWrBursts::6            13234                       # Per bank write bursts
system.mem_ctrls1.perBankWrBursts::7            10233                       # Per bank write bursts
system.mem_ctrls1.perBankWrBursts::8             3009                       # Per bank write bursts
system.mem_ctrls1.perBankWrBursts::9             4151                       # Per bank write bursts
system.mem_ctrls1.perBankWrBursts::10            5903                       # Per bank write bursts
system.mem_ctrls1.perBankWrBursts::11            3974                       # Per bank write bursts
system.mem_ctrls1.perBankWrBursts::12            4110                       # Per bank write bursts
system.mem_ctrls1.perBankWrBursts::13           16362                       # Per bank write bursts
system.mem_ctrls1.perBankWrBursts::14           11376                       # Per bank write bursts
system.mem_ctrls1.perBankWrBursts::15            9754                       # Per bank write bursts
system.mem_ctrls1.numRdRetry                        0                       # Number of times read queue was full causing retry
system.mem_ctrls1.numWrRetry                        0                       # Number of times write queue was full causing retry
system.mem_ctrls1.totGap                 403874487500                       # Total gap between requests
system.mem_ctrls1.readPktSize::0                    0                       # Read request sizes (log2)
system.mem_ctrls1.readPktSize::1                    0                       # Read request sizes (log2)
system.mem_ctrls1.readPktSize::2                    0                       # Read request sizes (log2)
system.mem_ctrls1.readPktSize::3                    0                       # Read request sizes (log2)
system.mem_ctrls1.readPktSize::4                    0                       # Read request sizes (log2)
system.mem_ctrls1.readPktSize::5                    0                       # Read request sizes (log2)
system.mem_ctrls1.readPktSize::6               169504                       # Read request sizes (log2)
system.mem_ctrls1.writePktSize::0                   0                       # Write request sizes (log2)
system.mem_ctrls1.writePktSize::1                   0                       # Write request sizes (log2)
system.mem_ctrls1.writePktSize::2                   0                       # Write request sizes (log2)
system.mem_ctrls1.writePktSize::3                   0                       # Write request sizes (log2)
system.mem_ctrls1.writePktSize::4                   0                       # Write request sizes (log2)
system.mem_ctrls1.writePktSize::5                   0                       # Write request sizes (log2)
system.mem_ctrls1.writePktSize::6              172785                       # Write request sizes (log2)
system.mem_ctrls1.rdQLenPdf::0                 136738                       # What read queue length does an incoming req see
system.mem_ctrls1.rdQLenPdf::1                      0                       # What read queue length does an incoming req see
system.mem_ctrls1.rdQLenPdf::2                      0                       # What read queue length does an incoming req see
system.mem_ctrls1.rdQLenPdf::3                      0                       # What read queue length does an incoming req see
system.mem_ctrls1.rdQLenPdf::4                      0                       # What read queue length does an incoming req see
system.mem_ctrls1.rdQLenPdf::5                      0                       # What read queue length does an incoming req see
system.mem_ctrls1.rdQLenPdf::6                      0                       # What read queue length does an incoming req see
system.mem_ctrls1.rdQLenPdf::7                      0                       # What read queue length does an incoming req see
system.mem_ctrls1.rdQLenPdf::8                      0                       # What read queue length does an incoming req see
system.mem_ctrls1.rdQLenPdf::9                      0                       # What read queue length does an incoming req see
system.mem_ctrls1.rdQLenPdf::10                     0                       # What read queue length does an incoming req see
system.mem_ctrls1.rdQLenPdf::11                     0                       # What read queue length does an incoming req see
system.mem_ctrls1.rdQLenPdf::12                     0                       # What read queue length does an incoming req see
system.mem_ctrls1.rdQLenPdf::13                     0                       # What read queue length does an incoming req see
system.mem_ctrls1.rdQLenPdf::14                     0                       # What read queue length does an incoming req see
system.mem_ctrls1.rdQLenPdf::15                     0                       # What read queue length does an incoming req see
system.mem_ctrls1.rdQLenPdf::16                     0                       # What read queue length does an incoming req see
system.mem_ctrls1.rdQLenPdf::17                     0                       # What read queue length does an incoming req see
system.mem_ctrls1.rdQLenPdf::18                     0                       # What read queue length does an incoming req see
system.mem_ctrls1.rdQLenPdf::19                     0                       # What read queue length does an incoming req see
system.mem_ctrls1.rdQLenPdf::20                     0                       # What read queue length does an incoming req see
system.mem_ctrls1.rdQLenPdf::21                     0                       # What read queue length does an incoming req see
system.mem_ctrls1.rdQLenPdf::22                     0                       # What read queue length does an incoming req see
system.mem_ctrls1.rdQLenPdf::23                     0                       # What read queue length does an incoming req see
system.mem_ctrls1.rdQLenPdf::24                     0                       # What read queue length does an incoming req see
system.mem_ctrls1.rdQLenPdf::25                     0                       # What read queue length does an incoming req see
system.mem_ctrls1.rdQLenPdf::26                     0                       # What read queue length does an incoming req see
system.mem_ctrls1.rdQLenPdf::27                     0                       # What read queue length does an incoming req see
system.mem_ctrls1.rdQLenPdf::28                     0                       # What read queue length does an incoming req see
system.mem_ctrls1.rdQLenPdf::29                     0                       # What read queue length does an incoming req see
system.mem_ctrls1.rdQLenPdf::30                     0                       # What read queue length does an incoming req see
system.mem_ctrls1.rdQLenPdf::31                     0                       # What read queue length does an incoming req see
system.mem_ctrls1.wrQLenPdf::0                      0                       # What write queue length does an incoming req see
system.mem_ctrls1.wrQLenPdf::1                      0                       # What write queue length does an incoming req see
system.mem_ctrls1.wrQLenPdf::2                      0                       # What write queue length does an incoming req see
system.mem_ctrls1.wrQLenPdf::3                      0                       # What write queue length does an incoming req see
system.mem_ctrls1.wrQLenPdf::4                      0                       # What write queue length does an incoming req see
system.mem_ctrls1.wrQLenPdf::5                      0                       # What write queue length does an incoming req see
system.mem_ctrls1.wrQLenPdf::6                      0                       # What write queue length does an incoming req see
system.mem_ctrls1.wrQLenPdf::7                      0                       # What write queue length does an incoming req see
system.mem_ctrls1.wrQLenPdf::8                      0                       # What write queue length does an incoming req see
system.mem_ctrls1.wrQLenPdf::9                      0                       # What write queue length does an incoming req see
system.mem_ctrls1.wrQLenPdf::10                     0                       # What write queue length does an incoming req see
system.mem_ctrls1.wrQLenPdf::11                     0                       # What write queue length does an incoming req see
system.mem_ctrls1.wrQLenPdf::12                     0                       # What write queue length does an incoming req see
system.mem_ctrls1.wrQLenPdf::13                     0                       # What write queue length does an incoming req see
system.mem_ctrls1.wrQLenPdf::14                     0                       # What write queue length does an incoming req see
system.mem_ctrls1.wrQLenPdf::15                  1229                       # What write queue length does an incoming req see
system.mem_ctrls1.wrQLenPdf::16                  1283                       # What write queue length does an incoming req see
system.mem_ctrls1.wrQLenPdf::17                  9455                       # What write queue length does an incoming req see
system.mem_ctrls1.wrQLenPdf::18                  9562                       # What write queue length does an incoming req see
system.mem_ctrls1.wrQLenPdf::19                  9600                       # What write queue length does an incoming req see
system.mem_ctrls1.wrQLenPdf::20                  9606                       # What write queue length does an incoming req see
system.mem_ctrls1.wrQLenPdf::21                  9607                       # What write queue length does an incoming req see
system.mem_ctrls1.wrQLenPdf::22                  9620                       # What write queue length does an incoming req see
system.mem_ctrls1.wrQLenPdf::23                  9620                       # What write queue length does an incoming req see
system.mem_ctrls1.wrQLenPdf::24                  9611                       # What write queue length does an incoming req see
system.mem_ctrls1.wrQLenPdf::25                  9625                       # What write queue length does an incoming req see
system.mem_ctrls1.wrQLenPdf::26                  9613                       # What write queue length does an incoming req see
system.mem_ctrls1.wrQLenPdf::27                  9620                       # What write queue length does an incoming req see
system.mem_ctrls1.wrQLenPdf::28                  9589                       # What write queue length does an incoming req see
system.mem_ctrls1.wrQLenPdf::29                  9550                       # What write queue length does an incoming req see
system.mem_ctrls1.wrQLenPdf::30                  9519                       # What write queue length does an incoming req see
system.mem_ctrls1.wrQLenPdf::31                  9505                       # What write queue length does an incoming req see
system.mem_ctrls1.wrQLenPdf::32                  9498                       # What write queue length does an incoming req see
system.mem_ctrls1.wrQLenPdf::33                    12                       # What write queue length does an incoming req see
system.mem_ctrls1.wrQLenPdf::34                     7                       # What write queue length does an incoming req see
system.mem_ctrls1.wrQLenPdf::35                     5                       # What write queue length does an incoming req see
system.mem_ctrls1.wrQLenPdf::36                     5                       # What write queue length does an incoming req see
system.mem_ctrls1.wrQLenPdf::37                     5                       # What write queue length does an incoming req see
system.mem_ctrls1.wrQLenPdf::38                     4                       # What write queue length does an incoming req see
system.mem_ctrls1.wrQLenPdf::39                     4                       # What write queue length does an incoming req see
system.mem_ctrls1.wrQLenPdf::40                     3                       # What write queue length does an incoming req see
system.mem_ctrls1.wrQLenPdf::41                     2                       # What write queue length does an incoming req see
system.mem_ctrls1.wrQLenPdf::42                     2                       # What write queue length does an incoming req see
system.mem_ctrls1.wrQLenPdf::43                     2                       # What write queue length does an incoming req see
system.mem_ctrls1.wrQLenPdf::44                     2                       # What write queue length does an incoming req see
system.mem_ctrls1.wrQLenPdf::45                     2                       # What write queue length does an incoming req see
system.mem_ctrls1.wrQLenPdf::46                     2                       # What write queue length does an incoming req see
system.mem_ctrls1.wrQLenPdf::47                     1                       # What write queue length does an incoming req see
system.mem_ctrls1.wrQLenPdf::48                     1                       # What write queue length does an incoming req see
system.mem_ctrls1.wrQLenPdf::49                     1                       # What write queue length does an incoming req see
system.mem_ctrls1.wrQLenPdf::50                     1                       # What write queue length does an incoming req see
system.mem_ctrls1.wrQLenPdf::51                     1                       # What write queue length does an incoming req see
system.mem_ctrls1.wrQLenPdf::52                     1                       # What write queue length does an incoming req see
system.mem_ctrls1.wrQLenPdf::53                     0                       # What write queue length does an incoming req see
system.mem_ctrls1.wrQLenPdf::54                     0                       # What write queue length does an incoming req see
system.mem_ctrls1.wrQLenPdf::55                     0                       # What write queue length does an incoming req see
system.mem_ctrls1.wrQLenPdf::56                     0                       # What write queue length does an incoming req see
system.mem_ctrls1.wrQLenPdf::57                     0                       # What write queue length does an incoming req see
system.mem_ctrls1.wrQLenPdf::58                     0                       # What write queue length does an incoming req see
system.mem_ctrls1.wrQLenPdf::59                     0                       # What write queue length does an incoming req see
system.mem_ctrls1.wrQLenPdf::60                     0                       # What write queue length does an incoming req see
system.mem_ctrls1.wrQLenPdf::61                     0                       # What write queue length does an incoming req see
system.mem_ctrls1.wrQLenPdf::62                     0                       # What write queue length does an incoming req see
system.mem_ctrls1.wrQLenPdf::63                     0                       # What write queue length does an incoming req see
system.mem_ctrls1.bytesPerActivate::samples       149951                       # Bytes accessed per row activation
system.mem_ctrls1.bytesPerActivate::mean   124.852305                       # Bytes accessed per row activation
system.mem_ctrls1.bytesPerActivate::gmean    99.253192                       # Bytes accessed per row activation
system.mem_ctrls1.bytesPerActivate::stdev   110.193120                       # Bytes accessed per row activation
system.mem_ctrls1.bytesPerActivate::0-127        89693     59.81%     59.81% # Bytes accessed per row activation
system.mem_ctrls1.bytesPerActivate::128-255        40830     27.23%     87.04% # Bytes accessed per row activation
system.mem_ctrls1.bytesPerActivate::256-383        12750      8.50%     95.55% # Bytes accessed per row activation
system.mem_ctrls1.bytesPerActivate::384-511         4030      2.69%     98.23% # Bytes accessed per row activation
system.mem_ctrls1.bytesPerActivate::512-639         1552      1.04%     99.27% # Bytes accessed per row activation
system.mem_ctrls1.bytesPerActivate::640-767          503      0.34%     99.60% # Bytes accessed per row activation
system.mem_ctrls1.bytesPerActivate::768-895          238      0.16%     99.76% # Bytes accessed per row activation
system.mem_ctrls1.bytesPerActivate::896-1023          135      0.09%     99.85% # Bytes accessed per row activation
system.mem_ctrls1.bytesPerActivate::1024-1151          220      0.15%    100.00% # Bytes accessed per row activation
system.mem_ctrls1.bytesPerActivate::total       149951                       # Bytes accessed per row activation
system.mem_ctrls1.rdPerTurnAround::samples         9494                       # Reads before turning the bus around for writes
system.mem_ctrls1.rdPerTurnAround::mean     14.402570                       # Reads before turning the bus around for writes
system.mem_ctrls1.rdPerTurnAround::stdev     2.363193                       # Reads before turning the bus around for writes
system.mem_ctrls1.rdPerTurnAround::0               26      0.27%      0.27% # Reads before turning the bus around for writes
system.mem_ctrls1.rdPerTurnAround::1               34      0.36%      0.63% # Reads before turning the bus around for writes
system.mem_ctrls1.rdPerTurnAround::2               18      0.19%      0.82% # Reads before turning the bus around for writes
system.mem_ctrls1.rdPerTurnAround::3                9      0.09%      0.92% # Reads before turning the bus around for writes
system.mem_ctrls1.rdPerTurnAround::4                7      0.07%      0.99% # Reads before turning the bus around for writes
system.mem_ctrls1.rdPerTurnAround::5               13      0.14%      1.13% # Reads before turning the bus around for writes
system.mem_ctrls1.rdPerTurnAround::6               18      0.19%      1.32% # Reads before turning the bus around for writes
system.mem_ctrls1.rdPerTurnAround::7               35      0.37%      1.69% # Reads before turning the bus around for writes
system.mem_ctrls1.rdPerTurnAround::8               78      0.82%      2.51% # Reads before turning the bus around for writes
system.mem_ctrls1.rdPerTurnAround::9              120      1.26%      3.77% # Reads before turning the bus around for writes
system.mem_ctrls1.rdPerTurnAround::10             211      2.22%      5.99% # Reads before turning the bus around for writes
system.mem_ctrls1.rdPerTurnAround::11             298      3.14%      9.13% # Reads before turning the bus around for writes
system.mem_ctrls1.rdPerTurnAround::12             527      5.55%     14.68% # Reads before turning the bus around for writes
system.mem_ctrls1.rdPerTurnAround::13             855      9.01%     23.69% # Reads before turning the bus around for writes
system.mem_ctrls1.rdPerTurnAround::14            1450     15.27%     38.96% # Reads before turning the bus around for writes
system.mem_ctrls1.rdPerTurnAround::15            1999     21.06%     60.02% # Reads before turning the bus around for writes
system.mem_ctrls1.rdPerTurnAround::16            3228     34.00%     94.02% # Reads before turning the bus around for writes
system.mem_ctrls1.rdPerTurnAround::17             506      5.33%     99.35% # Reads before turning the bus around for writes
system.mem_ctrls1.rdPerTurnAround::18              53      0.56%     99.91% # Reads before turning the bus around for writes
system.mem_ctrls1.rdPerTurnAround::19               5      0.05%     99.96% # Reads before turning the bus around for writes
system.mem_ctrls1.rdPerTurnAround::20               4      0.04%    100.00% # Reads before turning the bus around for writes
system.mem_ctrls1.rdPerTurnAround::total         9494                       # Reads before turning the bus around for writes
system.mem_ctrls1.wrPerTurnAround::samples         9494                       # Writes before turning the bus around for reads
system.mem_ctrls1.wrPerTurnAround::mean     16.407626                       # Writes before turning the bus around for reads
system.mem_ctrls1.wrPerTurnAround::gmean    16.344812                       # Writes before turning the bus around for reads
system.mem_ctrls1.wrPerTurnAround::stdev     1.855081                       # Writes before turning the bus around for reads
system.mem_ctrls1.wrPerTurnAround::16-17         8246     86.85%     86.85% # Writes before turning the bus around for reads
system.mem_ctrls1.wrPerTurnAround::18-19         1147     12.08%     98.94% # Writes before turning the bus around for reads
system.mem_ctrls1.wrPerTurnAround::20-21            7      0.07%     99.01% # Writes before turning the bus around for reads
system.mem_ctrls1.wrPerTurnAround::22-23            7      0.07%     99.08% # Writes before turning the bus around for reads
system.mem_ctrls1.wrPerTurnAround::24-25           13      0.14%     99.22% # Writes before turning the bus around for reads
system.mem_ctrls1.wrPerTurnAround::26-27           11      0.12%     99.34% # Writes before turning the bus around for reads
system.mem_ctrls1.wrPerTurnAround::28-29           13      0.14%     99.47% # Writes before turning the bus around for reads
system.mem_ctrls1.wrPerTurnAround::30-31            9      0.09%     99.57% # Writes before turning the bus around for reads
system.mem_ctrls1.wrPerTurnAround::32-33           19      0.20%     99.77% # Writes before turning the bus around for reads
system.mem_ctrls1.wrPerTurnAround::34-35            5      0.05%     99.82% # Writes before turning the bus around for reads
system.mem_ctrls1.wrPerTurnAround::36-37            3      0.03%     99.85% # Writes before turning the bus around for reads
system.mem_ctrls1.wrPerTurnAround::38-39            3      0.03%     99.88% # Writes before turning the bus around for reads
system.mem_ctrls1.wrPerTurnAround::40-41            1      0.01%     99.89% # Writes before turning the bus around for reads
system.mem_ctrls1.wrPerTurnAround::44-45            1      0.01%     99.91% # Writes before turning the bus around for reads
system.mem_ctrls1.wrPerTurnAround::48-49            5      0.05%     99.96% # Writes before turning the bus around for reads
system.mem_ctrls1.wrPerTurnAround::50-51            1      0.01%     99.97% # Writes before turning the bus around for reads
system.mem_ctrls1.wrPerTurnAround::52-53            1      0.01%     99.98% # Writes before turning the bus around for reads
system.mem_ctrls1.wrPerTurnAround::56-57            1      0.01%     99.99% # Writes before turning the bus around for reads
system.mem_ctrls1.wrPerTurnAround::66-67            1      0.01%    100.00% # Writes before turning the bus around for reads
system.mem_ctrls1.wrPerTurnAround::total         9494                       # Writes before turning the bus around for reads
system.mem_ctrls1.totQLat                  6018939250                       # Total ticks spent queuing
system.mem_ctrls1.totMemAccLat             8582776750                       # Total ticks spent from burst creation until serviced by the DRAM
system.mem_ctrls1.totBusLat                 683690000                       # Total ticks spent in databus transfers
system.mem_ctrls1.avgQLat                    44018.04                       # Average queueing delay per DRAM burst
system.mem_ctrls1.avgBusLat                   5000.00                       # Average bus latency per DRAM burst
system.mem_ctrls1.avgMemAccLat               62768.04                       # Average memory access latency per DRAM burst
system.mem_ctrls1.avgRdBW                       21.63                       # Average DRAM read bandwidth in MiByte/s
system.mem_ctrls1.avgWrBW                       24.64                       # Average achieved write bandwidth in MiByte/s
system.mem_ctrls1.avgRdBWSys                    26.81                       # Average system read bandwidth in MiByte/s
system.mem_ctrls1.avgWrBWSys                    27.33                       # Average system write bandwidth in MiByte/s
system.mem_ctrls1.peakBW                     12800.00                       # Theoretical peak bandwidth in MiByte/s
system.mem_ctrls1.busUtil                        0.36                       # Data bus utilization in percentage
system.mem_ctrls1.busUtilRead                    0.17                       # Data bus utilization in percentage for reads
system.mem_ctrls1.busUtilWrite                   0.19                       # Data bus utilization in percentage for writes
system.mem_ctrls1.avgRdQLen                      1.00                       # Average read queue length when enqueuing
system.mem_ctrls1.avgWrQLen                     25.11                       # Average write queue length when enqueuing
system.mem_ctrls1.readRowHits                   57124                       # Number of row buffer hits during reads
system.mem_ctrls1.writeRowHits                  85439                       # Number of row buffer hits during writes
system.mem_ctrls1.readRowHitRate                41.78                       # Row buffer hit rate for reads
system.mem_ctrls1.writeRowHitRate               54.85                       # Row buffer hit rate for writes
system.mem_ctrls1.avgGap                   1179922.49                       # Average gap between requests
system.mem_ctrls1.pageHitRate                   48.74                       # Row buffer hit rate, read and write combined
system.mem_ctrls1_0.actEnergy              1995687120                       # Energy for activate commands per rank (pJ)
system.mem_ctrls1_0.preEnergy              1060732860                       # Energy for precharge commands per rank (pJ)
system.mem_ctrls1_0.readEnergy             1997122260                       # Energy for read commands per rank (pJ)
system.mem_ctrls1_0.writeEnergy            1605729420                       # Energy for write commands per rank (pJ)
system.mem_ctrls1_0.refreshEnergy        39031483920.000008                       # Energy for refresh commands per rank (pJ)
system.mem_ctrls1_0.actBackEnergy         23297292510                       # Energy for active background per rank (pJ)
system.mem_ctrls1_0.preBackEnergy          1363266720                       # Energy for precharge background per rank (pJ)
system.mem_ctrls1_0.actPowerDownEnergy   135571654560                       # Energy for active power-down per rank (pJ)
system.mem_ctrls1_0.prePowerDownEnergy    39852917760                       # Energy for precharge power-down per rank (pJ)
system.mem_ctrls1_0.selfRefreshEnergy    1279344686925                       # Energy for self refresh per rank (pJ)
system.mem_ctrls1_0.totalEnergy          1525128648975                       # Total energy per rank (pJ)
system.mem_ctrls1_0.averagePower           264.135631                       # Core power per rank (mW)
system.mem_ctrls1_0.totalIdleTime        363706371500                       # Total Idle time Per DRAM Rank
system.mem_ctrls1_0.memoryStateTime::IDLE    875695750                       # Time in different power states
system.mem_ctrls1_0.memoryStateTime::REF   6350058000                       # Time in different power states
system.mem_ctrls1_0.memoryStateTime::SREF 232348723500                       # Time in different power states
system.mem_ctrls1_0.memoryStateTime::PRE_PDN  43077698500                       # Time in different power states
system.mem_ctrls1_0.memoryStateTime::ACT  12779986750                       # Time in different power states
system.mem_ctrls1_0.memoryStateTime::ACT_PDN 109214228000                       # Time in different power states
system.mem_ctrls1_1.actEnergy              1263829980                       # Energy for activate commands per rank (pJ)
system.mem_ctrls1_1.preEnergy               671741565                       # Energy for precharge commands per rank (pJ)
system.mem_ctrls1_1.readEnergy             1222603620                       # Energy for read commands per rank (pJ)
system.mem_ctrls1_1.writeEnergy             991643400                       # Energy for write commands per rank (pJ)
system.mem_ctrls1_1.refreshEnergy        40113250320.000008                       # Energy for refresh commands per rank (pJ)
system.mem_ctrls1_1.actBackEnergy         26878511310                       # Energy for active background per rank (pJ)
system.mem_ctrls1_1.preBackEnergy          1770246240                       # Energy for precharge background per rank (pJ)
system.mem_ctrls1_1.actPowerDownEnergy   107956859430                       # Energy for active power-down per rank (pJ)
system.mem_ctrls1_1.prePowerDownEnergy    56196388800                       # Energy for precharge power-down per rank (pJ)
system.mem_ctrls1_1.selfRefreshEnergy    1283264113365                       # Energy for self refresh per rank (pJ)
system.mem_ctrls1_1.totalEnergy          1520350554540                       # Total energy per rank (pJ)
system.mem_ctrls1_1.averagePower           263.308117                       # Core power per rank (mW)
system.mem_ctrls1_1.totalIdleTime        359663771000                       # Total Idle time Per DRAM Rank
system.mem_ctrls1_1.memoryStateTime::IDLE   1346953250                       # Time in different power states
system.mem_ctrls1_1.memoryStateTime::REF   6549202000                       # Time in different power states
system.mem_ctrls1_1.memoryStateTime::SREF 237468119000                       # Time in different power states
system.mem_ctrls1_1.memoryStateTime::PRE_PDN  57513221000                       # Time in different power states
system.mem_ctrls1_1.memoryStateTime::ACT  14047380250                       # Time in different power states
system.mem_ctrls1_1.memoryStateTime::ACT_PDN  87721625000                       # Time in different power states
system.mem_ctrls2.pwrStateResidencyTicks::UNDEFINED 5774036022500                       # Cumulative time (in ticks) in various power states
system.mem_ctrls2.bytes_read::ruby.dir_cntrl2     10760192                       # Number of bytes read from this memory
system.mem_ctrls2.bytes_read::total          10760192                       # Number of bytes read from this memory
system.mem_ctrls2.bytes_written::ruby.dir_cntrl2     10970176                       # Number of bytes written to this memory
system.mem_ctrls2.bytes_written::total       10970176                       # Number of bytes written to this memory
system.mem_ctrls2.num_reads::ruby.dir_cntrl2       168128                       # Number of read requests responded to by this memory
system.mem_ctrls2.num_reads::total             168128                       # Number of read requests responded to by this memory
system.mem_ctrls2.num_writes::ruby.dir_cntrl2       171409                       # Number of write requests responded to by this memory
system.mem_ctrls2.num_writes::total            171409                       # Number of write requests responded to by this memory
system.mem_ctrls2.bw_read::ruby.dir_cntrl2     26591598                       # Total read bandwidth from this memory (bytes/s)
system.mem_ctrls2.bw_read::total             26591598                       # Total read bandwidth from this memory (bytes/s)
system.mem_ctrls2.bw_write::ruby.dir_cntrl2     27110530                       # Write bandwidth from this memory (bytes/s)
system.mem_ctrls2.bw_write::total            27110530                       # Write bandwidth from this memory (bytes/s)
system.mem_ctrls2.bw_total::ruby.dir_cntrl2     53702128                       # Total bandwidth to/from this memory (bytes/s)
system.mem_ctrls2.bw_total::total            53702128                       # Total bandwidth to/from this memory (bytes/s)
system.mem_ctrls2.readReqs                     168128                       # Number of read requests accepted
system.mem_ctrls2.writeReqs                    171409                       # Number of write requests accepted
system.mem_ctrls2.readBursts                   168128                       # Number of DRAM read bursts, including those serviced by the write queue
system.mem_ctrls2.writeBursts                  171409                       # Number of DRAM write bursts, including those merged in the write queue
system.mem_ctrls2.bytesReadDRAM               8721984                       # Total number of bytes read from DRAM
system.mem_ctrls2.bytesReadWrQ                2038208                       # Total number of bytes read from write queue
system.mem_ctrls2.bytesWritten                9993792                       # Total number of bytes written to DRAM
system.mem_ctrls2.bytesReadSys               10760192                       # Total read bytes from the system interface side
system.mem_ctrls2.bytesWrittenSys            10970176                       # Total written bytes from the system interface side
system.mem_ctrls2.servicedByWrQ                 31847                       # Number of DRAM read bursts serviced by the write queue
system.mem_ctrls2.mergedWrBursts                15263                       # Number of DRAM write bursts merged with an existing one
system.mem_ctrls2.neitherReadNorWriteReqs            0                       # Number of requests that are neither read nor write
system.mem_ctrls2.perBankRdBursts::0            11438                       # Per bank write bursts
system.mem_ctrls2.perBankRdBursts::1            10039                       # Per bank write bursts
system.mem_ctrls2.perBankRdBursts::2             9811                       # Per bank write bursts
system.mem_ctrls2.perBankRdBursts::3             8802                       # Per bank write bursts
system.mem_ctrls2.perBankRdBursts::4            11946                       # Per bank write bursts
system.mem_ctrls2.perBankRdBursts::5            14352                       # Per bank write bursts
system.mem_ctrls2.perBankRdBursts::6             9912                       # Per bank write bursts
system.mem_ctrls2.perBankRdBursts::7             9754                       # Per bank write bursts
system.mem_ctrls2.perBankRdBursts::8             2615                       # Per bank write bursts
system.mem_ctrls2.perBankRdBursts::9             3629                       # Per bank write bursts
system.mem_ctrls2.perBankRdBursts::10            4021                       # Per bank write bursts
system.mem_ctrls2.perBankRdBursts::11            3172                       # Per bank write bursts
system.mem_ctrls2.perBankRdBursts::12            4273                       # Per bank write bursts
system.mem_ctrls2.perBankRdBursts::13           14305                       # Per bank write bursts
system.mem_ctrls2.perBankRdBursts::14           10663                       # Per bank write bursts
system.mem_ctrls2.perBankRdBursts::15            7549                       # Per bank write bursts
system.mem_ctrls2.perBankWrBursts::0            12485                       # Per bank write bursts
system.mem_ctrls2.perBankWrBursts::1            12752                       # Per bank write bursts
system.mem_ctrls2.perBankWrBursts::2            10793                       # Per bank write bursts
system.mem_ctrls2.perBankWrBursts::3             9869                       # Per bank write bursts
system.mem_ctrls2.perBankWrBursts::4            13309                       # Per bank write bursts
system.mem_ctrls2.perBankWrBursts::5            18620                       # Per bank write bursts
system.mem_ctrls2.perBankWrBursts::6            11253                       # Per bank write bursts
system.mem_ctrls2.perBankWrBursts::7            10690                       # Per bank write bursts
system.mem_ctrls2.perBankWrBursts::8             3262                       # Per bank write bursts
system.mem_ctrls2.perBankWrBursts::9             4318                       # Per bank write bursts
system.mem_ctrls2.perBankWrBursts::10            4983                       # Per bank write bursts
system.mem_ctrls2.perBankWrBursts::11            3652                       # Per bank write bursts
system.mem_ctrls2.perBankWrBursts::12            4778                       # Per bank write bursts
system.mem_ctrls2.perBankWrBursts::13           15427                       # Per bank write bursts
system.mem_ctrls2.perBankWrBursts::14           11405                       # Per bank write bursts
system.mem_ctrls2.perBankWrBursts::15            8557                       # Per bank write bursts
system.mem_ctrls2.numRdRetry                        0                       # Number of times read queue was full causing retry
system.mem_ctrls2.numWrRetry                        0                       # Number of times write queue was full causing retry
system.mem_ctrls2.totGap                 404217089000                       # Total gap between requests
system.mem_ctrls2.readPktSize::0                    0                       # Read request sizes (log2)
system.mem_ctrls2.readPktSize::1                    0                       # Read request sizes (log2)
system.mem_ctrls2.readPktSize::2                    0                       # Read request sizes (log2)
system.mem_ctrls2.readPktSize::3                    0                       # Read request sizes (log2)
system.mem_ctrls2.readPktSize::4                    0                       # Read request sizes (log2)
system.mem_ctrls2.readPktSize::5                    0                       # Read request sizes (log2)
[...]
system.ruby.RMW_Read.Directory.miss_type_mach_latency_hist_seqr::mean   153.220407                      
system.ruby.RMW_Read.Directory.miss_type_mach_latency_hist_seqr::gmean   101.713889                      
system.ruby.RMW_Read.Directory.miss_type_mach_latency_hist_seqr::stdev   214.394817                      
system.ruby.RMW_Read.Directory.miss_type_mach_latency_hist_seqr |       18684     91.39%     91.39% |         873      4.27%     95.66% |         172      0.84%     96.50% |           9      0.04%     96.55% |         682      3.34%     99.88% |          22      0.11%     99.99% |           2      0.01%    100.00% |           0      0.00%    100.00% |           0      0.00%    100.00% |           0      0.00%    100.00%
system.ruby.RMW_Read.Directory.miss_type_mach_latency_hist_seqr::total        20444                      
system.ruby.Locked_RMW_Read.Directory.miss_type_mach_latency_hist_seqr::bucket_size           64                      
system.ruby.Locked_RMW_Read.Directory.miss_type_mach_latency_hist_seqr::max_bucket          639                      
system.ruby.Locked_RMW_Read.Directory.miss_type_mach_latency_hist_seqr::samples           95                      
system.ruby.Locked_RMW_Read.Directory.miss_type_mach_latency_hist_seqr::mean   155.063158                      
system.ruby.Locked_RMW_Read.Directory.miss_type_mach_latency_hist_seqr::gmean   138.017574                      
system.ruby.Locked_RMW_Read.Directory.miss_type_mach_latency_hist_seqr::stdev    77.244956                      
system.ruby.Locked_RMW_Read.Directory.miss_type_mach_latency_hist_seqr |          10     10.53%     10.53% |           3      3.16%     13.68% |          70     73.68%     87.37% |           0      0.00%     87.37% |           4      4.21%     91.58% |           7      7.37%     98.95% |           0      0.00%     98.95% |           1      1.05%    100.00% |           0      0.00%    100.00% |           0      0.00%    100.00%
system.ruby.Locked_RMW_Read.Directory.miss_type_mach_latency_hist_seqr::total           95                      
system.ruby.Directory_Controller.GETX    |      201207     14.80%     14.80% |      169504     12.47%     27.28% |      168128     12.37%     39.65% |      163209     12.01%     51.65% |      155535     11.44%     63.10% |      169508     12.47%     75.57% |      160685     11.82%     87.39% |      171346     12.61%    100.00%
system.ruby.Directory_Controller.GETX::total      1359122                      
system.ruby.Directory_Controller.PUTX    |      201207     14.80%     14.80% |      169504     12.47%     27.28% |      168128     12.37%     39.65% |      163209     12.01%     51.65% |      155535     11.44%     63.10% |      169508     12.47%     75.57% |      160685     11.82%     87.39% |      171346     12.61%    100.00%
system.ruby.Directory_Controller.PUTX::total      1359122                      
system.ruby.Directory_Controller.DMA_READ |         186    100.00%    100.00% |           0      0.00%    100.00% |           0      0.00%    100.00% |           0      0.00%    100.00% |           0      0.00%    100.00% |           0      0.00%    100.00% |           0      0.00%    100.00% |           0      0.00%    100.00%
system.ruby.Directory_Controller.DMA_READ::total          186                      
system.ruby.Directory_Controller.DMA_WRITE |        3282     12.50%     12.50% |        3282     12.50%     25.00% |        3282     12.50%     37.50% |        3282     12.50%     50.00% |        3282     12.50%     62.50% |        3282     12.50%     75.00% |        3282     12.50%     87.50% |        3282     12.50%    100.00%
system.ruby.Directory_Controller.DMA_WRITE::total        26256                      
system.ruby.Directory_Controller.Memory_Data |      201258     14.81%     14.81% |      169504     12.47%     27.28% |      168128     12.37%     39.65% |      163209     12.01%     51.66% |      155535     11.44%     63.10% |      169508     12.47%     75.57% |      160685     11.82%     87.39% |      171346     12.61%    100.00%
system.ruby.Directory_Controller.Memory_Data::total      1359173                      
system.ruby.Directory_Controller.Memory_Ack |      204489     14.76%     14.76% |      172785     12.47%     27.23% |      171409     12.37%     39.61% |      166491     12.02%     51.62% |      158817     11.46%     63.09% |      172790     12.47%     75.56% |      163967     11.84%     87.39% |      174628     12.61%    100.00%
system.ruby.Directory_Controller.Memory_Ack::total      1385376                      
system.ruby.Directory_Controller.I.GETX  |      201207     14.80%     14.80% |      169504     12.47%     27.28% |      168128     12.37%     39.65% |      163209     12.01%     51.65% |      155535     11.44%     63.10% |      169508     12.47%     75.57% |      160685     11.82%     87.39% |      171346     12.61%    100.00%
system.ruby.Directory_Controller.I.GETX::total      1359122                      
system.ruby.Directory_Controller.I.DMA_READ |          51    100.00%    100.00% |           0      0.00%    100.00% |           0      0.00%    100.00% |           0      0.00%    100.00% |           0      0.00%    100.00% |           0      0.00%    100.00% |           0      0.00%    100.00% |           0      0.00%    100.00%
system.ruby.Directory_Controller.I.DMA_READ::total           51                      
system.ruby.Directory_Controller.I.DMA_WRITE |        3282     12.50%     12.50% |        3281     12.50%     25.00% |        3281     12.50%     37.50% |        3282     12.50%     50.00% |        3282     12.50%     62.50% |        3282     12.50%     75.00% |        3282     12.50%     87.50% |        3282     12.50%    100.00%
system.ruby.Directory_Controller.I.DMA_WRITE::total        26254                      
system.ruby.Directory_Controller.M.PUTX  |      201072     14.80%     14.80% |      169503     12.47%     27.27% |      168127     12.37%     39.64% |      163209     12.01%     51.65% |      155535     11.44%     63.09% |      169508     12.47%     75.57% |      160685     11.82%     87.39% |      171346     12.61%    100.00%
system.ruby.Directory_Controller.M.PUTX::total      1358985                      
system.ruby.Directory_Controller.M.DMA_READ |         135    100.00%    100.00% |           0      0.00%    100.00% |           0      0.00%    100.00% |           0      0.00%    100.00% |           0      0.00%    100.00% |           0      0.00%    100.00% |           0      0.00%    100.00% |           0      0.00%    100.00%
system.ruby.Directory_Controller.M.DMA_READ::total          135                      
system.ruby.Directory_Controller.M.DMA_WRITE |           0      0.00%      0.00% |           1     50.00%     50.00% |           1     50.00%    100.00% |           0      0.00%    100.00% |           0      0.00%    100.00% |           0      0.00%    100.00% |           0      0.00%    100.00% |           0      0.00%    100.00%
system.ruby.Directory_Controller.M.DMA_WRITE::total            2                      
system.ruby.Directory_Controller.M_DRD.PUTX |         135    100.00%    100.00% |           0      0.00%    100.00% |           0      0.00%    100.00% |           0      0.00%    100.00% |           0      0.00%    100.00% |           0      0.00%    100.00% |           0      0.00%    100.00% |           0      0.00%    100.00%
system.ruby.Directory_Controller.M_DRD.PUTX::total          135                      
system.ruby.Directory_Controller.M_DWR.PUTX |           0      0.00%      0.00% |           1     50.00%     50.00% |           1     50.00%    100.00% |           0      0.00%    100.00% |           0      0.00%    100.00% |           0      0.00%    100.00% |           0      0.00%    100.00% |           0      0.00%    100.00%
system.ruby.Directory_Controller.M_DWR.PUTX::total            2                      
system.ruby.Directory_Controller.M_DWRI.Memory_Ack |           0      0.00%      0.00% |           1     50.00%     50.00% |           1     50.00%    100.00% |           0      0.00%    100.00% |           0      0.00%    100.00% |           0      0.00%    100.00% |           0      0.00%    100.00% |           0      0.00%    100.00%
system.ruby.Directory_Controller.M_DWRI.Memory_Ack::total            2                      
system.ruby.Directory_Controller.M_DRDI.Memory_Ack |         135    100.00%    100.00% |           0      0.00%    100.00% |           0      0.00%    100.00% |           0      0.00%    100.00% |           0      0.00%    100.00% |           0      0.00%    100.00% |           0      0.00%    100.00% |           0      0.00%    100.00%
system.ruby.Directory_Controller.M_DRDI.Memory_Ack::total          135                      
system.ruby.Directory_Controller.IM.Memory_Data |      201207     14.80%     14.80% |      169504     12.47%     27.28% |      168128     12.37%     39.65% |      163209     12.01%     51.65% |      155535     11.44%     63.10% |      169508     12.47%     75.57% |      160685     11.82%     87.39% |      171346     12.61%    100.00%
system.ruby.Directory_Controller.IM.Memory_Data::total      1359122                      
system.ruby.Directory_Controller.MI.Memory_Ack |      201072     14.80%     14.80% |      169503     12.47%     27.27% |      168127     12.37%     39.64% |      163209     12.01%     51.65% |      155535     11.44%     63.09% |      169508     12.47%     75.57% |      160685     11.82%     87.39% |      171346     12.61%    100.00%
system.ruby.Directory_Controller.MI.Memory_Ack::total      1358985                      
system.ruby.Directory_Controller.ID.Memory_Data |          51    100.00%    100.00% |           0      0.00%    100.00% |           0      0.00%    100.00% |           0      0.00%    100.00% |           0      0.00%    100.00% |           0      0.00%    100.00% |           0      0.00%    100.00% |           0      0.00%    100.00%
system.ruby.Directory_Controller.ID.Memory_Data::total           51                      
system.ruby.Directory_Controller.ID_W.Memory_Ack |        3282     12.50%     12.50% |        3281     12.50%     25.00% |        3281     12.50%     37.50% |        3282     12.50%     50.00% |        3282     12.50%     62.50% |        3282     12.50%     75.00% |        3282     12.50%     87.50% |        3282     12.50%    100.00%
system.ruby.Directory_Controller.ID_W.Memory_Ack::total        26254                      
system.ruby.DMA_Controller.ReadRequest   |         186    100.00%    100.00% |           0      0.00%    100.00%
system.ruby.DMA_Controller.ReadRequest::total          186                      
system.ruby.DMA_Controller.WriteRequest  |       26256    100.00%    100.00% |           0      0.00%    100.00%
system.ruby.DMA_Controller.WriteRequest::total        26256                      
system.ruby.DMA_Controller.Data          |         186    100.00%    100.00% |           0      0.00%    100.00%
system.ruby.DMA_Controller.Data::total            186                      
system.ruby.DMA_Controller.Ack           |       26256    100.00%    100.00% |           0      0.00%    100.00%
system.ruby.DMA_Controller.Ack::total           26256                      
system.ruby.DMA_Controller.READY.ReadRequest |         186    100.00%    100.00% |           0      0.00%    100.00%
system.ruby.DMA_Controller.READY.ReadRequest::total          186                      
system.ruby.DMA_Controller.READY.WriteRequest |       26256    100.00%    100.00% |           0      0.00%    100.00%
system.ruby.DMA_Controller.READY.WriteRequest::total        26256                      
system.ruby.DMA_Controller.BUSY_RD.Data  |         186    100.00%    100.00% |           0      0.00%    100.00%
system.ruby.DMA_Controller.BUSY_RD.Data::total          186                      
system.ruby.DMA_Controller.BUSY_WR.Ack   |       26256    100.00%    100.00% |           0      0.00%    100.00%
system.ruby.DMA_Controller.BUSY_WR.Ack::total        26256                      
system.ruby.L1Cache_Controller.Load      |    37803402    100.00%    100.00% |           0      0.00%    100.00% |           0      0.00%    100.00% |           0      0.00%    100.00% |           0      0.00%    100.00% |           0      0.00%    100.00% |           0      0.00%    100.00% |           0      0.00%    100.00%
system.ruby.L1Cache_Controller.Load::total     37803402                      
system.ruby.L1Cache_Controller.Ifetch    |   218043653    100.00%    100.00% |           0      0.00%    100.00% |           0      0.00%    100.00% |           0      0.00%    100.00% |           0      0.00%    100.00% |           0      0.00%    100.00% |           0      0.00%    100.00% |           0      0.00%    100.00%
system.ruby.L1Cache_Controller.Ifetch::total    218043653                      
system.ruby.L1Cache_Controller.Store     |    23388269    100.00%    100.00% |           0      0.00%    100.00% |           0      0.00%    100.00% |           0      0.00%    100.00% |           0      0.00%    100.00% |           0      0.00%    100.00% |           0      0.00%    100.00% |           0      0.00%    100.00%
system.ruby.L1Cache_Controller.Store::total     23388269                      
system.ruby.L1Cache_Controller.Data      |     1359122    100.00%    100.00% |           0      0.00%    100.00% |           0      0.00%    100.00% |           0      0.00%    100.00% |           0      0.00%    100.00% |           0      0.00%    100.00% |           0      0.00%    100.00% |           0      0.00%    100.00%
system.ruby.L1Cache_Controller.Data::total      1359122                      
system.ruby.L1Cache_Controller.Inv       |         274    100.00%    100.00% |           0      0.00%    100.00% |           0      0.00%    100.00% |           0      0.00%    100.00% |           0      0.00%    100.00% |           0      0.00%    100.00% |           0      0.00%    100.00% |           0      0.00%    100.00%
system.ruby.L1Cache_Controller.Inv::total          274                      
system.ruby.L1Cache_Controller.Replacement |     1358985    100.00%    100.00% |           0      0.00%    100.00% |           0      0.00%    100.00% |           0      0.00%    100.00% |           0      0.00%    100.00% |           0      0.00%    100.00% |           0      0.00%    100.00% |           0      0.00%    100.00%
system.ruby.L1Cache_Controller.Replacement::total      1358985                      
system.ruby.L1Cache_Controller.Writeback_Ack |     1359122    100.00%    100.00% |           0      0.00%    100.00% |           0      0.00%    100.00% |           0      0.00%    100.00% |           0      0.00%    100.00% |           0      0.00%    100.00% |           0      0.00%    100.00% |           0      0.00%    100.00%
system.ruby.L1Cache_Controller.Writeback_Ack::total      1359122                      
system.ruby.L1Cache_Controller.I.Load    |      550573    100.00%    100.00% |           0      0.00%    100.00% |           0      0.00%    100.00% |           0      0.00%    100.00% |           0      0.00%    100.00% |           0      0.00%    100.00% |           0      0.00%    100.00% |           0      0.00%    100.00%
system.ruby.L1Cache_Controller.I.Load::total       550573                      
system.ruby.L1Cache_Controller.I.Ifetch  |      476442    100.00%    100.00% |           0      0.00%    100.00% |           0      0.00%    100.00% |           0      0.00%    100.00% |           0      0.00%    100.00% |           0      0.00%    100.00% |           0      0.00%    100.00% |           0      0.00%    100.00%
system.ruby.L1Cache_Controller.I.Ifetch::total       476442                      
system.ruby.L1Cache_Controller.I.Store   |      332107    100.00%    100.00% |           0      0.00%    100.00% |           0      0.00%    100.00% |           0      0.00%    100.00% |           0      0.00%    100.00% |           0      0.00%    100.00% |           0      0.00%    100.00% |           0      0.00%    100.00%
system.ruby.L1Cache_Controller.I.Store::total       332107                      
system.ruby.L1Cache_Controller.M.Load    |    37252829    100.00%    100.00% |           0      0.00%    100.00% |           0      0.00%    100.00% |           0      0.00%    100.00% |           0      0.00%    100.00% |           0      0.00%    100.00% |           0      0.00%    100.00% |           0      0.00%    100.00%
system.ruby.L1Cache_Controller.M.Load::total     37252829                      
system.ruby.L1Cache_Controller.M.Ifetch  |   217567211    100.00%    100.00% |           0      0.00%    100.00% |           0      0.00%    100.00% |           0      0.00%    100.00% |           0      0.00%    100.00% |           0      0.00%    100.00% |           0      0.00%    100.00% |           0      0.00%    100.00%
system.ruby.L1Cache_Controller.M.Ifetch::total    217567211                      
system.ruby.L1Cache_Controller.M.Store   |    23056162    100.00%    100.00% |           0      0.00%    100.00% |           0      0.00%    100.00% |           0      0.00%    100.00% |           0      0.00%    100.00% |           0      0.00%    100.00% |           0      0.00%    100.00% |           0      0.00%    100.00%
system.ruby.L1Cache_Controller.M.Store::total     23056162                      
system.ruby.L1Cache_Controller.M.Inv     |         137    100.00%    100.00% |           0      0.00%    100.00% |           0      0.00%    100.00% |           0      0.00%    100.00% |           0      0.00%    100.00% |           0      0.00%    100.00% |           0      0.00%    100.00% |           0      0.00%    100.00%
system.ruby.L1Cache_Controller.M.Inv::total          137                      
system.ruby.L1Cache_Controller.M.Replacement |     1358985    100.00%    100.00% |           0      0.00%    100.00% |           0      0.00%    100.00% |           0      0.00%    100.00% |           0      0.00%    100.00% |           0      0.00%    100.00% |           0      0.00%    100.00% |           0      0.00%    100.00%
system.ruby.L1Cache_Controller.M.Replacement::total      1358985                      
system.ruby.L1Cache_Controller.MI.Inv    |         137    100.00%    100.00% |           0      0.00%    100.00% |           0      0.00%    100.00% |           0      0.00%    100.00% |           0      0.00%    100.00% |           0      0.00%    100.00% |           0      0.00%    100.00% |           0      0.00%    100.00%
system.ruby.L1Cache_Controller.MI.Inv::total          137                      
system.ruby.L1Cache_Controller.MI.Writeback_Ack |     1359122    100.00%    100.00% |           0      0.00%    100.00% |           0      0.00%    100.00% |           0      0.00%    100.00% |           0      0.00%    100.00% |           0      0.00%    100.00% |           0      0.00%    100.00% |           0      0.00%    100.00%
system.ruby.L1Cache_Controller.MI.Writeback_Ack::total      1359122                      
system.ruby.L1Cache_Controller.IS.Data   |     1027015    100.00%    100.00% |           0      0.00%    100.00% |           0      0.00%    100.00% |           0      0.00%    100.00% |           0      0.00%    100.00% |           0      0.00%    100.00% |           0      0.00%    100.00% |           0      0.00%    100.00%
system.ruby.L1Cache_Controller.IS.Data::total      1027015                      
system.ruby.L1Cache_Controller.IM.Data   |      332107    100.00%    100.00% |           0      0.00%    100.00% |           0      0.00%    100.00% |           0      0.00%    100.00% |           0      0.00%    100.00% |           0      0.00%    100.00% |           0      0.00%    100.00% |           0      0.00%    100.00%
system.ruby.L1Cache_Controller.IM.Data::total       332107                      

---------- End Simulation Statistics   ----------
