
---------- Begin Simulation Statistics ----------
sim_seconds                                  0.367026                       # Number of seconds simulated
sim_ticks                                367026203000                       # Number of ticks simulated
final_tick                               367026203000                       # Number of ticks from beginning of simulation (restored from checkpoints and never reset)
sim_freq                                 1000000000000                       # Frequency of simulated ticks
host_inst_rate                                1350870                       # Simulator instruction rate (inst/s)
host_op_rate                                  1469890                       # Simulator op (including micro ops) rate (op/s)
host_tick_rate                             1126704482                       # Simulator tick rate (ticks/s)
host_mem_usage                                 743008                       # Number of bytes of host memory used
host_seconds                                   325.75                       # Real time elapsed on the host
sim_insts                                   440048491                       # Number of instructions simulated
sim_ops                                     478819584                       # Number of ops (including micro ops) simulated
system.voltage_domain.voltage                       1                       # Voltage in Volts
system.clk_domain.clock                          1000                       # Clock period in ticks
system.mem_ctrls.pwrStateResidencyTicks::UNDEFINED 367026203000                       # Cumulative time (in ticks) in various power states
system.mem_ctrls.bytes_read::cpu0.inst          55616                       # Number of bytes read from this memory
system.mem_ctrls.bytes_read::cpu0.data        2124032                       # Number of bytes read from this memory
system.mem_ctrls.bytes_read::cpu1.inst           1536                       # Number of bytes read from this memory
system.mem_ctrls.bytes_read::cpu1.data           1920                       # Number of bytes read from this memory
system.mem_ctrls.bytes_read::cpu2.inst            128                       # Number of bytes read from this memory
system.mem_ctrls.bytes_read::cpu2.data           1472                       # Number of bytes read from this memory
system.mem_ctrls.bytes_read::cpu3.data           1472                       # Number of bytes read from this memory
system.mem_ctrls.bytes_read::cpu4.inst            128                       # Number of bytes read from this memory
system.mem_ctrls.bytes_read::cpu4.data           1472                       # Number of bytes read from this memory
system.mem_ctrls.bytes_read::cpu5.inst           1088                       # Number of bytes read from this memory
system.mem_ctrls.bytes_read::cpu5.data           5632                       # Number of bytes read from this memory
system.mem_ctrls.bytes_read::cpu6.data           1472                       # Number of bytes read from this memory
system.mem_ctrls.bytes_read::cpu7.data           1472                       # Number of bytes read from this memory
system.mem_ctrls.bytes_read::total            2197440                       # Number of bytes read from this memory
system.mem_ctrls.bytes_inst_read::cpu0.inst        55616                       # Number of instructions bytes read from this memory
system.mem_ctrls.bytes_inst_read::cpu1.inst         1536                       # Number of instructions bytes read from this memory
system.mem_ctrls.bytes_inst_read::cpu2.inst          128                       # Number of instructions bytes read from this memory
system.mem_ctrls.bytes_inst_read::cpu4.inst          128                       # Number of instructions bytes read from this memory
system.mem_ctrls.bytes_inst_read::cpu5.inst         1088                       # Number of instructions bytes read from this memory
system.mem_ctrls.bytes_inst_read::total         58496                       # Number of instructions bytes read from this memory
system.mem_ctrls.bytes_written::writebacks        97984                       # Number of bytes written to this memory
system.mem_ctrls.bytes_written::total           97984                       # Number of bytes written to this memory
system.mem_ctrls.num_reads::cpu0.inst             869                       # Number of read requests responded to by this memory
system.mem_ctrls.num_reads::cpu0.data           33188                       # Number of read requests responded to by this memory
system.mem_ctrls.num_reads::cpu1.inst              24                       # Number of read requests responded to by this memory
system.mem_ctrls.num_reads::cpu1.data              30                       # Number of read requests responded to by this memory
system.mem_ctrls.num_reads::cpu2.inst               2                       # Number of read requests responded to by this memory
system.mem_ctrls.num_reads::cpu2.data              23                       # Number of read requests responded to by this memory
system.mem_ctrls.num_reads::cpu3.data              23                       # Number of read requests responded to by this memory
system.mem_ctrls.num_reads::cpu4.inst               2                       # Number of read requests responded to by this memory
system.mem_ctrls.num_reads::cpu4.data              23                       # Number of read requests responded to by this memory
system.mem_ctrls.num_reads::cpu5.inst              17                       # Number of read requests responded to by this memory
system.mem_ctrls.num_reads::cpu5.data              88                       # Number of read requests responded to by this memory
system.mem_ctrls.num_reads::cpu6.data              23                       # Number of read requests responded to by this memory
system.mem_ctrls.num_reads::cpu7.data              23                       # Number of read requests responded to by this memory
system.mem_ctrls.num_reads::total               34335                       # Number of read requests responded to by this memory
system.mem_ctrls.num_writes::writebacks          1531                       # Number of write requests responded to by this memory
system.mem_ctrls.num_writes::total               1531                       # Number of write requests responded to by this memory
system.mem_ctrls.bw_read::cpu0.inst            151531                       # Total read bandwidth from this memory (bytes/s)
system.mem_ctrls.bw_read::cpu0.data           5787140                       # Total read bandwidth from this memory (bytes/s)
system.mem_ctrls.bw_read::cpu1.inst              4185                       # Total read bandwidth from this memory (bytes/s)
system.mem_ctrls.bw_read::cpu1.data              5231                       # Total read bandwidth from this memory (bytes/s)
system.mem_ctrls.bw_read::cpu2.inst               349                       # Total read bandwidth from this memory (bytes/s)
system.mem_ctrls.bw_read::cpu2.data              4011                       # Total read bandwidth from this memory (bytes/s)
system.mem_ctrls.bw_read::cpu3.data              4011                       # Total read bandwidth from this memory (bytes/s)
system.mem_ctrls.bw_read::cpu4.inst               349                       # Total read bandwidth from this memory (bytes/s)
system.mem_ctrls.bw_read::cpu4.data              4011                       # Total read bandwidth from this memory (bytes/s)
system.mem_ctrls.bw_read::cpu5.inst              2964                       # Total read bandwidth from this memory (bytes/s)
system.mem_ctrls.bw_read::cpu5.data             15345                       # Total read bandwidth from this memory (bytes/s)
system.mem_ctrls.bw_read::cpu6.data              4011                       # Total read bandwidth from this memory (bytes/s)
system.mem_ctrls.bw_read::cpu7.data              4011                       # Total read bandwidth from this memory (bytes/s)
system.mem_ctrls.bw_read::total               5987147                       # Total read bandwidth from this memory (bytes/s)
system.mem_ctrls.bw_inst_read::cpu0.inst       151531                       # Instruction read bandwidth from this memory (bytes/s)
system.mem_ctrls.bw_inst_read::cpu1.inst         4185                       # Instruction read bandwidth from this memory (bytes/s)
system.mem_ctrls.bw_inst_read::cpu2.inst          349                       # Instruction read bandwidth from this memory (bytes/s)
system.mem_ctrls.bw_inst_read::cpu4.inst          349                       # Instruction read bandwidth from this memory (bytes/s)
system.mem_ctrls.bw_inst_read::cpu5.inst         2964                       # Instruction read bandwidth from this memory (bytes/s)
system.mem_ctrls.bw_inst_read::total           159378                       # Instruction read bandwidth from this memory (bytes/s)
system.mem_ctrls.bw_write::writebacks          266967                       # Write bandwidth from this memory (bytes/s)
system.mem_ctrls.bw_write::total               266967                       # Write bandwidth from this memory (bytes/s)
system.mem_ctrls.bw_total::writebacks          266967                       # Total bandwidth to/from this memory (bytes/s)
system.mem_ctrls.bw_total::cpu0.inst           151531                       # Total bandwidth to/from this memory (bytes/s)
system.mem_ctrls.bw_total::cpu0.data          5787140                       # Total bandwidth to/from this memory (bytes/s)
system.mem_ctrls.bw_total::cpu1.inst             4185                       # Total bandwidth to/from this memory (bytes/s)
system.mem_ctrls.bw_total::cpu1.data             5231                       # Total bandwidth to/from this memory (bytes/s)
system.mem_ctrls.bw_total::cpu2.inst              349                       # Total bandwidth to/from this memory (bytes/s)
system.mem_ctrls.bw_total::cpu2.data             4011                       # Total bandwidth to/from this memory (bytes/s)
system.mem_ctrls.bw_total::cpu3.data             4011                       # Total bandwidth to/from this memory (bytes/s)
system.mem_ctrls.bw_total::cpu4.inst              349                       # Total bandwidth to/from this memory (bytes/s)
system.mem_ctrls.bw_total::cpu4.data             4011                       # Total bandwidth to/from this memory (bytes/s)
system.mem_ctrls.bw_total::cpu5.inst             2964                       # Total bandwidth to/from this memory (bytes/s)
system.mem_ctrls.bw_total::cpu5.data            15345                       # Total bandwidth to/from this memory (bytes/s)
system.mem_ctrls.bw_total::cpu6.data             4011                       # Total bandwidth to/from this memory (bytes/s)
system.mem_ctrls.bw_total::cpu7.data             4011                       # Total bandwidth to/from this memory (bytes/s)
system.mem_ctrls.bw_total::total              6254115                       # Total bandwidth to/from this memory (bytes/s)
system.mem_ctrls.readReqs                       34335                       # Number of read requests accepted
system.mem_ctrls.writeReqs                       1531                       # Number of write requests accepted
system.mem_ctrls.readBursts                     34335                       # Number of DRAM read bursts, including those serviced by the write queue
system.mem_ctrls.writeBursts                     1531                       # Number of DRAM write bursts, including those merged in the write queue
system.mem_ctrls.bytesReadDRAM                2197440                       # Total number of bytes read from DRAM
system.mem_ctrls.bytesReadWrQ                       0                       # Total number of bytes read from write queue
system.mem_ctrls.bytesWritten                   96704                       # Total number of bytes written to DRAM
system.mem_ctrls.bytesReadSys                 2197440                       # Total read bytes from the system interface side
system.mem_ctrls.bytesWrittenSys                97984                       # Total written bytes from the system interface side
system.mem_ctrls.servicedByWrQ                      0                       # Number of DRAM read bursts serviced by the write queue
system.mem_ctrls.mergedWrBursts                     0                       # Number of DRAM write bursts merged with an existing one
system.mem_ctrls.neitherReadNorWriteReqs            0                       # Number of requests that are neither read nor write
system.mem_ctrls.perBankRdBursts::0              2059                       # Per bank write bursts
system.mem_ctrls.perBankRdBursts::1              2049                       # Per bank write bursts
system.mem_ctrls.perBankRdBursts::2              2096                       # Per bank write bursts
system.mem_ctrls.perBankRdBursts::3              2277                       # Per bank write bursts
system.mem_ctrls.perBankRdBursts::4              2089                       # Per bank write bursts
system.mem_ctrls.perBankRdBursts::5              2137                       # Per bank write bursts
system.mem_ctrls.perBankRdBursts::6              2336                       # Per bank write bursts
system.mem_ctrls.perBankRdBursts::7              2112                       # Per bank write bursts
system.mem_ctrls.perBankRdBursts::8              2186                       # Per bank write bursts
system.mem_ctrls.perBankRdBursts::9              2164                       # Per bank write bursts
system.mem_ctrls.perBankRdBursts::10             2065                       # Per bank write bursts
system.mem_ctrls.perBankRdBursts::11             2108                       # Per bank write bursts
system.mem_ctrls.perBankRdBursts::12             2179                       # Per bank write bursts
system.mem_ctrls.perBankRdBursts::13             2171                       # Per bank write bursts
system.mem_ctrls.perBankRdBursts::14             2169                       # Per bank write bursts
system.mem_ctrls.perBankRdBursts::15             2138                       # Per bank write bursts
system.mem_ctrls.perBankWrBursts::0                23                       # Per bank write bursts
system.mem_ctrls.perBankWrBursts::1                29                       # Per bank write bursts
system.mem_ctrls.perBankWrBursts::2                54                       # Per bank write bursts
system.mem_ctrls.perBankWrBursts::3               196                       # Per bank write bursts
system.mem_ctrls.perBankWrBursts::4                65                       # Per bank write bursts
system.mem_ctrls.perBankWrBursts::5                83                       # Per bank write bursts
system.mem_ctrls.perBankWrBursts::6               263                       # Per bank write bursts
system.mem_ctrls.perBankWrBursts::7                64                       # Per bank write bursts
system.mem_ctrls.perBankWrBursts::8               118                       # Per bank write bursts
system.mem_ctrls.perBankWrBursts::9               103                       # Per bank write bursts
system.mem_ctrls.perBankWrBursts::10               45                       # Per bank write bursts
system.mem_ctrls.perBankWrBursts::11               48                       # Per bank write bursts
system.mem_ctrls.perBankWrBursts::12              109                       # Per bank write bursts
system.mem_ctrls.perBankWrBursts::13              120                       # Per bank write bursts
system.mem_ctrls.perBankWrBursts::14              107                       # Per bank write bursts
system.mem_ctrls.perBankWrBursts::15               84                       # Per bank write bursts
system.mem_ctrls.numRdRetry                         0                       # Number of times read queue was full causing retry
system.mem_ctrls.numWrRetry                         0                       # Number of times write queue was full causing retry
system.mem_ctrls.totGap                  320498617000                       # Total gap between requests
system.mem_ctrls.readPktSize::0                     0                       # Read request sizes (log2)
system.mem_ctrls.readPktSize::1                     0                       # Read request sizes (log2)
system.mem_ctrls.readPktSize::2                     0                       # Read request sizes (log2)
system.mem_ctrls.readPktSize::3                     0                       # Read request sizes (log2)
system.mem_ctrls.readPktSize::4                     0                       # Read request sizes (log2)
system.mem_ctrls.readPktSize::5                     0                       # Read request sizes (log2)
system.mem_ctrls.readPktSize::6                 34335                       # Read request sizes (log2)
system.mem_ctrls.writePktSize::0                    0                       # Write request sizes (log2)
system.mem_ctrls.writePktSize::1                    0                       # Write request sizes (log2)
system.mem_ctrls.writePktSize::2                    0                       # Write request sizes (log2)
system.mem_ctrls.writePktSize::3                    0                       # Write request sizes (log2)
system.mem_ctrls.writePktSize::4                    0                       # Write request sizes (log2)
system.mem_ctrls.writePktSize::5                    0                       # Write request sizes (log2)
system.mem_ctrls.writePktSize::6                 1531                       # Write request sizes (log2)
system.mem_ctrls.rdQLenPdf::0                   34123                       # What read queue length does an incoming req see
system.mem_ctrls.rdQLenPdf::1                      39                       # What read queue length does an incoming req see
system.mem_ctrls.rdQLenPdf::2                      11                       # What read queue length does an incoming req see
system.mem_ctrls.rdQLenPdf::3                       7                       # What read queue length does an incoming req see
system.mem_ctrls.rdQLenPdf::4                      80                       # What read queue length does an incoming req see
system.mem_ctrls.rdQLenPdf::5                      57                       # What read queue length does an incoming req see
system.mem_ctrls.rdQLenPdf::6                      11                       # What read queue length does an incoming req see
system.mem_ctrls.rdQLenPdf::7                       7                       # What read queue length does an incoming req see
system.mem_ctrls.rdQLenPdf::8                       0                       # What read queue length does an incoming req see
system.mem_ctrls.rdQLenPdf::9                       0                       # What read queue length does an incoming req see
system.mem_ctrls.rdQLenPdf::10                      0                       # What read queue length does an incoming req see
system.mem_ctrls.rdQLenPdf::11                      0                       # What read queue length does an incoming req see
system.mem_ctrls.rdQLenPdf::12                      0                       # What read queue length does an incoming req see
system.mem_ctrls.rdQLenPdf::13                      0                       # What read queue length does an incoming req see
system.mem_ctrls.rdQLenPdf::14                      0                       # What read queue length does an incoming req see
system.mem_ctrls.rdQLenPdf::15                      0                       # What read queue length does an incoming req see
system.mem_ctrls.rdQLenPdf::16                      0                       # What read queue length does an incoming req see
system.mem_ctrls.rdQLenPdf::17                      0                       # What read queue length does an incoming req see
system.mem_ctrls.rdQLenPdf::18                      0                       # What read queue length does an incoming req see
system.mem_ctrls.rdQLenPdf::19                      0                       # What read queue length does an incoming req see
system.mem_ctrls.rdQLenPdf::20                      0                       # What read queue length does an incoming req see
system.mem_ctrls.rdQLenPdf::21                      0                       # What read queue length does an incoming req see
system.mem_ctrls.rdQLenPdf::22                      0                       # What read queue length does an incoming req see
system.mem_ctrls.rdQLenPdf::23                      0                       # What read queue length does an incoming req see
system.mem_ctrls.rdQLenPdf::24                      0                       # What read queue length does an incoming req see
system.mem_ctrls.rdQLenPdf::25                      0                       # What read queue length does an incoming req see
system.mem_ctrls.rdQLenPdf::26                      0                       # What read queue length does an incoming req see
system.mem_ctrls.rdQLenPdf::27                      0                       # What read queue length does an incoming req see
system.mem_ctrls.rdQLenPdf::28                      0                       # What read queue length does an incoming req see
system.mem_ctrls.rdQLenPdf::29                      0                       # What read queue length does an incoming req see
system.mem_ctrls.rdQLenPdf::30                      0                       # What read queue length does an incoming req see
system.mem_ctrls.rdQLenPdf::31                      0                       # What read queue length does an incoming req see
system.mem_ctrls.wrQLenPdf::0                       1                       # What write queue length does an incoming req see
system.mem_ctrls.wrQLenPdf::1                       1                       # What write queue length does an incoming req see
system.mem_ctrls.wrQLenPdf::2                       1                       # What write queue length does an incoming req see
system.mem_ctrls.wrQLenPdf::3                       1                       # What write queue length does an incoming req see
system.mem_ctrls.wrQLenPdf::4                       1                       # What write queue length does an incoming req see
system.mem_ctrls.wrQLenPdf::5                       1                       # What write queue length does an incoming req see
system.mem_ctrls.wrQLenPdf::6                       1                       # What write queue length does an incoming req see
system.mem_ctrls.wrQLenPdf::7                       1                       # What write queue length does an incoming req see
system.mem_ctrls.wrQLenPdf::8                       1                       # What write queue length does an incoming req see
system.mem_ctrls.wrQLenPdf::9                       1                       # What write queue length does an incoming req see
system.mem_ctrls.wrQLenPdf::10                      1                       # What write queue length does an incoming req see
system.mem_ctrls.wrQLenPdf::11                      1                       # What write queue length does an incoming req see
system.mem_ctrls.wrQLenPdf::12                      1                       # What write queue length does an incoming req see
system.mem_ctrls.wrQLenPdf::13                      1                       # What write queue length does an incoming req see
system.mem_ctrls.wrQLenPdf::14                      1                       # What write queue length does an incoming req see
system.mem_ctrls.wrQLenPdf::15                     68                       # What write queue length does an incoming req see
system.mem_ctrls.wrQLenPdf::16                     69                       # What write queue length does an incoming req see
system.mem_ctrls.wrQLenPdf::17                     73                       # What write queue length does an incoming req see
system.mem_ctrls.wrQLenPdf::18                     77                       # What write queue length does an incoming req see
system.mem_ctrls.wrQLenPdf::19                     77                       # What write queue length does an incoming req see
system.mem_ctrls.wrQLenPdf::20                     77                       # What write queue length does an incoming req see
system.mem_ctrls.wrQLenPdf::21                     77                       # What write queue length does an incoming req see
system.mem_ctrls.wrQLenPdf::22                     77                       # What write queue length does an incoming req see
system.mem_ctrls.wrQLenPdf::23                     77                       # What write queue length does an incoming req see
system.mem_ctrls.wrQLenPdf::24                     78                       # What write queue length does an incoming req see
system.mem_ctrls.wrQLenPdf::25                     77                       # What write queue length does an incoming req see
system.mem_ctrls.wrQLenPdf::26                     77                       # What write queue length does an incoming req see
system.mem_ctrls.wrQLenPdf::27                     78                       # What write queue length does an incoming req see
system.mem_ctrls.wrQLenPdf::28                     77                       # What write queue length does an incoming req see
system.mem_ctrls.wrQLenPdf::29                     79                       # What write queue length does an incoming req see
system.mem_ctrls.wrQLenPdf::30                     79                       # What write queue length does an incoming req see
system.mem_ctrls.wrQLenPdf::31                     78                       # What write queue length does an incoming req see
system.mem_ctrls.wrQLenPdf::32                     78                       # What write queue length does an incoming req see
system.mem_ctrls.wrQLenPdf::33                      1                       # What write queue length does an incoming req see
system.mem_ctrls.wrQLenPdf::34                      1                       # What write queue length does an incoming req see
system.mem_ctrls.wrQLenPdf::35                      1                       # What write queue length does an incoming req see
system.mem_ctrls.wrQLenPdf::36                      1                       # What write queue length does an incoming req see
system.mem_ctrls.wrQLenPdf::37                      2                       # What write queue length does an incoming req see
system.mem_ctrls.wrQLenPdf::38                      1                       # What write queue length does an incoming req see
system.mem_ctrls.wrQLenPdf::39                      1                       # What write queue length does an incoming req see
system.mem_ctrls.wrQLenPdf::40                      1                       # What write queue length does an incoming req see
system.mem_ctrls.wrQLenPdf::41                      2                       # What write queue length does an incoming req see
system.mem_ctrls.wrQLenPdf::42                      7                       # What write queue length does an incoming req see
system.mem_ctrls.wrQLenPdf::43                     10                       # What write queue length does an incoming req see
system.mem_ctrls.wrQLenPdf::44                     11                       # What write queue length does an incoming req see
system.mem_ctrls.wrQLenPdf::45                      9                       # What write queue length does an incoming req see
system.mem_ctrls.wrQLenPdf::46                     11                       # What write queue length does an incoming req see
system.mem_ctrls.wrQLenPdf::47                     10                       # What write queue length does an incoming req see
system.mem_ctrls.wrQLenPdf::48                      8                       # What write queue length does an incoming req see
system.mem_ctrls.wrQLenPdf::49                     10                       # What write queue length does an incoming req see
system.mem_ctrls.wrQLenPdf::50                      9                       # What write queue length does an incoming req see
system.mem_ctrls.wrQLenPdf::51                      9                       # What write queue length does an incoming req see
system.mem_ctrls.wrQLenPdf::52                      9                       # What write queue length does an incoming req see
system.mem_ctrls.wrQLenPdf::53                     11                       # What write queue length does an incoming req see
system.mem_ctrls.wrQLenPdf::54                      8                       # What write queue length does an incoming req see
system.mem_ctrls.wrQLenPdf::55                      7                       # What write queue length does an incoming req see
system.mem_ctrls.wrQLenPdf::56                      3                       # What write queue length does an incoming req see
system.mem_ctrls.wrQLenPdf::57                      0                       # What write queue length does an incoming req see
system.mem_ctrls.wrQLenPdf::58                      0                       # What write queue length does an incoming req see
system.mem_ctrls.wrQLenPdf::59                      0                       # What write queue length does an incoming req see
system.mem_ctrls.wrQLenPdf::60                      0                       # What write queue length does an incoming req see
system.mem_ctrls.wrQLenPdf::61                      0                       # What write queue length does an incoming req see
system.mem_ctrls.wrQLenPdf::62                      0                       # What write queue length does an incoming req see
system.mem_ctrls.wrQLenPdf::63                      0                       # What write queue length does an incoming req see
system.mem_ctrls.bytesPerActivate::samples        20434                       # Bytes accessed per row activation
system.mem_ctrls.bytesPerActivate::mean    112.270921                       # Bytes accessed per row activation
system.mem_ctrls.bytesPerActivate::gmean    85.348634                       # Bytes accessed per row activation
system.mem_ctrls.bytesPerActivate::stdev   113.946252                       # Bytes accessed per row activation
system.mem_ctrls.bytesPerActivate::0-127        16773     82.08%     82.08% # Bytes accessed per row activation
system.mem_ctrls.bytesPerActivate::128-255          287      1.40%     83.49% # Bytes accessed per row activation
system.mem_ctrls.bytesPerActivate::256-383         2660     13.02%     96.51% # Bytes accessed per row activation
system.mem_ctrls.bytesPerActivate::384-511          581      2.84%     99.35% # Bytes accessed per row activation
system.mem_ctrls.bytesPerActivate::512-639           28      0.14%     99.49% # Bytes accessed per row activation
system.mem_ctrls.bytesPerActivate::640-767           25      0.12%     99.61% # Bytes accessed per row activation
system.mem_ctrls.bytesPerActivate::768-895           18      0.09%     99.70% # Bytes accessed per row activation
system.mem_ctrls.bytesPerActivate::896-1023           20      0.10%     99.79% # Bytes accessed per row activation
system.mem_ctrls.bytesPerActivate::1024-1151           42      0.21%    100.00% # Bytes accessed per row activation
system.mem_ctrls.bytesPerActivate::total        20434                       # Bytes accessed per row activation
system.mem_ctrls.rdPerTurnAround::samples           86                       # Reads before turning the bus around for writes
system.mem_ctrls.rdPerTurnAround::mean     399.186047                       # Reads before turning the bus around for writes
system.mem_ctrls.rdPerTurnAround::gmean     35.246964                       # Reads before turning the bus around for writes
system.mem_ctrls.rdPerTurnAround::stdev   3186.382948                       # Reads before turning the bus around for writes
system.mem_ctrls.rdPerTurnAround::0-1023           85     98.84%     98.84% # Reads before turning the bus around for writes
system.mem_ctrls.rdPerTurnAround::28672-29695            1      1.16%    100.00% # Reads before turning the bus around for writes
system.mem_ctrls.rdPerTurnAround::total            86                       # Reads before turning the bus around for writes
system.mem_ctrls.wrPerTurnAround::samples           86                       # Writes before turning the bus around for reads
system.mem_ctrls.wrPerTurnAround::mean      17.569767                       # Writes before turning the bus around for reads
system.mem_ctrls.wrPerTurnAround::gmean     17.550016                       # Writes before turning the bus around for reads
system.mem_ctrls.wrPerTurnAround::stdev      0.819479                       # Writes before turning the bus around for reads
system.mem_ctrls.wrPerTurnAround::16               18     20.93%     20.93% # Writes before turning the bus around for reads
system.mem_ctrls.wrPerTurnAround::17                1      1.16%     22.09% # Writes before turning the bus around for reads
system.mem_ctrls.wrPerTurnAround::18               67     77.91%    100.00% # Writes before turning the bus around for reads
system.mem_ctrls.wrPerTurnAround::total            86                       # Writes before turning the bus around for reads
system.mem_ctrls.totQLat                   7544916500                       # Total ticks spent queuing
system.mem_ctrls.totMemAccLat              8188697750                       # Total ticks spent from burst creation until serviced by the DRAM
system.mem_ctrls.totBusLat                  171675000                       # Total ticks spent in databus transfers
system.mem_ctrls.avgQLat                    219744.18                       # Average queueing delay per DRAM burst
system.mem_ctrls.avgBusLat                    5000.00                       # Average bus latency per DRAM burst
system.mem_ctrls.avgMemAccLat               238494.18                       # Average memory access latency per DRAM burst
system.mem_ctrls.avgRdBW                         5.99                       # Average DRAM read bandwidth in MiByte/s
system.mem_ctrls.avgWrBW                         0.26                       # Average achieved write bandwidth in MiByte/s
system.mem_ctrls.avgRdBWSys                      5.99                       # Average system read bandwidth in MiByte/s
system.mem_ctrls.avgWrBWSys                      0.27                       # Average system write bandwidth in MiByte/s
system.mem_ctrls.peakBW                      12800.00                       # Theoretical peak bandwidth in MiByte/s
system.mem_ctrls.busUtil                         0.05                       # Data bus utilization in percentage
system.mem_ctrls.busUtilRead                     0.05                       # Data bus utilization in percentage for reads
system.mem_ctrls.busUtilWrite                    0.00                       # Data bus utilization in percentage for writes
system.mem_ctrls.avgRdQLen                       1.00                       # Average read queue length when enqueuing
system.mem_ctrls.avgWrQLen                       8.80                       # Average write queue length when enqueuing
system.mem_ctrls.readRowHits                    14170                       # Number of row buffer hits during reads
system.mem_ctrls.writeRowHits                    1242                       # Number of row buffer hits during writes
system.mem_ctrls.readRowHitRate                 41.27                       # Row buffer hit rate for reads
system.mem_ctrls.writeRowHitRate                81.12                       # Row buffer hit rate for writes
system.mem_ctrls.avgGap                    8936001.14                       # Average gap between requests
system.mem_ctrls.pageHitRate                    42.97                       # Row buffer hit rate, read and write combined
system.mem_ctrls_0.actEnergy                 72670920                       # Energy for activate commands per rank (pJ)
system.mem_ctrls_0.preEnergy                 38625510                       # Energy for precharge commands per rank (pJ)
system.mem_ctrls_0.readEnergy               122486700                       # Energy for read commands per rank (pJ)
system.mem_ctrls_0.writeEnergy                4055940                       # Energy for write commands per rank (pJ)
system.mem_ctrls_0.refreshEnergy         14222769600.000004                       # Energy for refresh commands per rank (pJ)
system.mem_ctrls_0.actBackEnergy           2945924730                       # Energy for active background per rank (pJ)
system.mem_ctrls_0.preBackEnergy            876911040                       # Energy for precharge background per rank (pJ)
system.mem_ctrls_0.actPowerDownEnergy     28768657530                       # Energy for active power-down per rank (pJ)
system.mem_ctrls_0.prePowerDownEnergy     23099751360                       # Energy for precharge power-down per rank (pJ)
system.mem_ctrls_0.selfRefreshEnergy      60081491700                       # Energy for self refresh per rank (pJ)
system.mem_ctrls_0.totalEnergy           130243229700                       # Total energy per rank (pJ)
system.mem_ctrls_0.averagePower            354.860847                       # Core power per rank (mW)
system.mem_ctrls_0.totalIdleTime         311748157000                       # Total Idle time Per DRAM Rank
system.mem_ctrls_0.memoryStateTime::IDLE   1812388000                       # Time in different power states
system.mem_ctrls_0.memoryStateTime::REF    6057002000                       # Time in different power states
system.mem_ctrls_0.memoryStateTime::SREF 235015522750                       # Time in different power states
system.mem_ctrls_0.memoryStateTime::PRE_PDN  60155719750                       # Time in different power states
system.mem_ctrls_0.memoryStateTime::ACT     896384000                       # Time in different power states
system.mem_ctrls_0.memoryStateTime::ACT_PDN  63089186500                       # Time in different power states
system.mem_ctrls_1.actEnergy                 73227840                       # Energy for activate commands per rank (pJ)
system.mem_ctrls_1.preEnergy                 38921520                       # Energy for precharge commands per rank (pJ)
system.mem_ctrls_1.readEnergy               122665200                       # Energy for read commands per rank (pJ)
system.mem_ctrls_1.writeEnergy                3831480                       # Energy for write commands per rank (pJ)
system.mem_ctrls_1.refreshEnergy         14194496160.000004                       # Energy for refresh commands per rank (pJ)
system.mem_ctrls_1.actBackEnergy           2965042530                       # Energy for active background per rank (pJ)
system.mem_ctrls_1.preBackEnergy            863963040                       # Energy for precharge background per rank (pJ)
system.mem_ctrls_1.actPowerDownEnergy     28924740630                       # Energy for active power-down per rank (pJ)
system.mem_ctrls_1.prePowerDownEnergy     23182956960                       # Energy for precharge power-down per rank (pJ)
system.mem_ctrls_1.selfRefreshEnergy      59874858810                       # Energy for self refresh per rank (pJ)
system.mem_ctrls_1.totalEnergy           130255801710                       # Total energy per rank (pJ)
system.mem_ctrls_1.averagePower            354.895099                       # Core power per rank (mW)
system.mem_ctrls_1.totalIdleTime         311723798250                       # Total Idle time Per DRAM Rank
system.mem_ctrls_1.memoryStateTime::IDLE   1779893500                       # Time in different power states
system.mem_ctrls_1.memoryStateTime::REF    6044394000                       # Time in different power states
system.mem_ctrls_1.memoryStateTime::SREF 234445658250                       # Time in different power states
system.mem_ctrls_1.memoryStateTime::PRE_PDN  60372245000                       # Time in different power states
system.mem_ctrls_1.memoryStateTime::ACT     952294750                       # Time in different power states
system.mem_ctrls_1.memoryStateTime::ACT_PDN  63431717500                       # Time in different power states
system.pwrStateResidencyTicks::UNDEFINED 367026203000                       # Cumulative time (in ticks) in various power states
system.cpu_voltage_domain.voltage                   1                       # Voltage in Volts
system.cpu_clk_domain.clock                       500                       # Clock period in ticks
system.cpu0.dstage2_mmu.stage2_tlb.walker.pwrStateResidencyTicks::UNDEFINED 367026203000                       # Cumulative time (in ticks) in various power states
system.cpu0.dstage2_mmu.stage2_tlb.walker.walks            0                       # Table walker walks requested
system.cpu0.dstage2_mmu.stage2_tlb.walker.walkRequestOrigin_Requested::Data            0                       # Table walker requests started/completed, data/inst
system.cpu0.dstage2_mmu.stage2_tlb.walker.walkRequestOrigin_Requested::Inst            0                       # Table walker requests started/completed, data/inst
system.cpu0.dstage2_mmu.stage2_tlb.walker.walkRequestOrigin_Requested::total            0                       # Table walker requests started/completed, data/inst
system.cpu0.dstage2_mmu.stage2_tlb.walker.walkRequestOrigin_Completed::Data            0                       # Table walker requests started/completed, data/inst
system.cpu0.dstage2_mmu.stage2_tlb.walker.walkRequestOrigin_Completed::Inst            0                       # Table walker requests started/completed, data/inst
system.cpu0.dstage2_mmu.stage2_tlb.walker.walkRequestOrigin_Completed::total            0                       # Table walker requests started/completed, data/inst
system.cpu0.dstage2_mmu.stage2_tlb.walker.walkRequestOrigin::total            0                       # Table walker requests started/completed, data/inst
system.cpu0.dstage2_mmu.stage2_tlb.inst_hits            0                       # ITB inst hits
system.cpu0.dstage2_mmu.stage2_tlb.inst_misses            0                       # ITB inst misses
system.cpu0.dstage2_mmu.stage2_tlb.read_hits            0                       # DTB read hits
system.cpu0.dstage2_mmu.stage2_tlb.read_misses            0                       # DTB read misses
system.cpu0.dstage2_mmu.stage2_tlb.write_hits            0                       # DTB write hits
system.cpu0.dstage2_mmu.stage2_tlb.write_misses            0                       # DTB write misses
system.cpu0.dstage2_mmu.stage2_tlb.flush_tlb            0                       # Number of times complete TLB was flushed
system.cpu0.dstage2_mmu.stage2_tlb.flush_tlb_mva            0                       # Number of times TLB was flushed by MVA
system.cpu0.dstage2_mmu.stage2_tlb.flush_tlb_mva_asid            0                       # Number of times TLB was flushed by MVA & ASID
system.cpu0.dstage2_mmu.stage2_tlb.flush_tlb_asid            0                       # Number of times TLB was flushed by ASID
system.cpu0.dstage2_mmu.stage2_tlb.flush_entries            0                       # Number of entries that have been flushed from TLB
system.cpu0.dstage2_mmu.stage2_tlb.align_faults            0                       # Number of TLB faults due to alignment restrictions
system.cpu0.dstage2_mmu.stage2_tlb.prefetch_faults            0                       # Number of TLB faults due to prefetch
system.cpu0.dstage2_mmu.stage2_tlb.domain_faults            0                       # Number of TLB faults due to domain restrictions
system.cpu0.dstage2_mmu.stage2_tlb.perms_faults            0                       # Number of TLB faults due to permissions restrictions
system.cpu0.dstage2_mmu.stage2_tlb.read_accesses            0                       # DTB read accesses
system.cpu0.dstage2_mmu.stage2_tlb.write_accesses            0                       # DTB write accesses
system.cpu0.dstage2_mmu.stage2_tlb.inst_accesses            0                       # ITB inst accesses
system.cpu0.dstage2_mmu.stage2_tlb.hits             0                       # DTB hits
system.cpu0.dstage2_mmu.stage2_tlb.misses            0                       # DTB misses
system.cpu0.dstage2_mmu.stage2_tlb.accesses            0                       # DTB accesses
system.cpu0.dtb.walker.pwrStateResidencyTicks::UNDEFINED 367026203000                       # Cumulative time (in ticks) in various power states
system.cpu0.dtb.walker.walks                        0                       # Table walker walks requested
system.cpu0.dtb.walker.walkRequestOrigin_Requested::Data            0                       # Table walker requests started/completed, data/inst
system.cpu0.dtb.walker.walkRequestOrigin_Requested::Inst            0                       # Table walker requests started/completed, data/inst
system.cpu0.dtb.walker.walkRequestOrigin_Requested::total            0                       # Table walker requests started/completed, data/inst
system.cpu0.dtb.walker.walkRequestOrigin_Completed::Data            0                       # Table walker requests started/completed, data/inst
system.cpu0.dtb.walker.walkRequestOrigin_Completed::Inst            0                       # Table walker requests started/completed, data/inst
system.cpu0.dtb.walker.walkRequestOrigin_Completed::total            0                       # Table walker requests started/completed, data/inst
system.cpu0.dtb.walker.walkRequestOrigin::total            0                       # Table walker requests started/completed, data/inst
system.cpu0.dtb.inst_hits                           0                       # ITB inst hits
system.cpu0.dtb.inst_misses                         0                       # ITB inst misses
system.cpu0.dtb.read_hits                           0                       # DTB read hits
system.cpu0.dtb.read_misses                         0                       # DTB read misses
system.cpu0.dtb.write_hits                          0                       # DTB write hits
system.cpu0.dtb.write_misses                        0                       # DTB write misses
system.cpu0.dtb.flush_tlb                           0                       # Number of times complete TLB was flushed
system.cpu0.dtb.flush_tlb_mva                       0                       # Number of times TLB was flushed by MVA
system.cpu0.dtb.flush_tlb_mva_asid                  0                       # Number of times TLB was flushed by MVA & ASID
system.cpu0.dtb.flush_tlb_asid                      0                       # Number of times TLB was flushed by ASID
system.cpu0.dtb.flush_entries                       0                       # Number of entries that have been flushed from TLB
system.cpu0.dtb.align_faults                        0                       # Number of TLB faults due to alignment restrictions
system.cpu0.dtb.prefetch_faults                     0                       # Number of TLB faults due to prefetch
system.cpu0.dtb.domain_faults                       0                       # Number of TLB faults due to domain restrictions
system.cpu0.dtb.perms_faults                        0                       # Number of TLB faults due to permissions restrictions
system.cpu0.dtb.read_accesses                       0                       # DTB read accesses
system.cpu0.dtb.write_accesses                      0                       # DTB write accesses
system.cpu0.dtb.inst_accesses                       0                       # ITB inst accesses
system.cpu0.dtb.hits                                0                       # DTB hits
system.cpu0.dtb.misses                              0                       # DTB misses
system.cpu0.dtb.accesses                            0                       # DTB accesses
system.cpu0.istage2_mmu.stage2_tlb.walker.pwrStateResidencyTicks::UNDEFINED 367026203000                       # Cumulative time (in ticks) in various power states
system.cpu0.istage2_mmu.stage2_tlb.walker.walks            0                       # Table walker walks requested
system.cpu0.istage2_mmu.stage2_tlb.walker.walkRequestOrigin_Requested::Data            0                       # Table walker requests started/completed, data/inst
system.cpu0.istage2_mmu.stage2_tlb.walker.walkRequestOrigin_Requested::Inst            0                       # Table walker requests started/completed, data/inst
system.cpu0.istage2_mmu.stage2_tlb.walker.walkRequestOrigin_Requested::total            0                       # Table walker requests started/completed, data/inst
system.cpu0.istage2_mmu.stage2_tlb.walker.walkRequestOrigin_Completed::Data            0                       # Table walker requests started/completed, data/inst
system.cpu0.istage2_mmu.stage2_tlb.walker.walkRequestOrigin_Completed::Inst            0                       # Table walker requests started/completed, data/inst
system.cpu0.istage2_mmu.stage2_tlb.walker.walkRequestOrigin_Completed::total            0                       # Table walker requests started/completed, data/inst
system.cpu0.istage2_mmu.stage2_tlb.walker.walkRequestOrigin::total            0                       # Table walker requests started/completed, data/inst
system.cpu0.istage2_mmu.stage2_tlb.inst_hits            0                       # ITB inst hits
system.cpu0.istage2_mmu.stage2_tlb.inst_misses            0                       # ITB inst misses
system.cpu0.istage2_mmu.stage2_tlb.read_hits            0                       # DTB read hits
system.cpu0.istage2_mmu.stage2_tlb.read_misses            0                       # DTB read misses
system.cpu0.istage2_mmu.stage2_tlb.write_hits            0                       # DTB write hits
system.cpu0.istage2_mmu.stage2_tlb.write_misses            0                       # DTB write misses
system.cpu0.istage2_mmu.stage2_tlb.flush_tlb            0                       # Number of times complete TLB was flushed
system.cpu0.istage2_mmu.stage2_tlb.flush_tlb_mva            0                       # Number of times TLB was flushed by MVA
system.cpu0.istage2_mmu.stage2_tlb.flush_tlb_mva_asid            0                       # Number of times TLB was flushed by MVA & ASID
system.cpu0.istage2_mmu.stage2_tlb.flush_tlb_asid            0                       # Number of times TLB was flushed by ASID
system.cpu0.istage2_mmu.stage2_tlb.flush_entries            0                       # Number of entries that have been flushed from TLB
system.cpu0.istage2_mmu.stage2_tlb.align_faults            0                       # Number of TLB faults due to alignment restrictions
system.cpu0.istage2_mmu.stage2_tlb.prefetch_faults            0                       # Number of TLB faults due to prefetch
system.cpu0.istage2_mmu.stage2_tlb.domain_faults            0                       # Number of TLB faults due to domain restrictions
system.cpu0.istage2_mmu.stage2_tlb.perms_faults            0                       # Number of TLB faults due to permissions restrictions
system.cpu0.istage2_mmu.stage2_tlb.read_accesses            0                       # DTB read accesses
system.cpu0.istage2_mmu.stage2_tlb.write_accesses            0                       # DTB write accesses
system.cpu0.istage2_mmu.stage2_tlb.inst_accesses            0                       # ITB inst accesses
system.cpu0.istage2_mmu.stage2_tlb.hits             0                       # DTB hits
system.cpu0.istage2_mmu.stage2_tlb.misses            0                       # DTB misses
system.cpu0.istage2_mmu.stage2_tlb.accesses            0                       # DTB accesses
system.cpu0.itb.walker.pwrStateResidencyTicks::UNDEFINED 367026203000                       # Cumulative time (in ticks) in various power states
system.cpu0.itb.walker.walks                        0                       # Table walker walks requested
system.cpu0.itb.walker.walkRequestOrigin_Requested::Data            0                       # Table walker requests started/completed, data/inst
system.cpu0.itb.walker.walkRequestOrigin_Requested::Inst            0                       # Table walker requests started/completed, data/inst
system.cpu0.itb.walker.walkRequestOrigin_Requested::total            0                       # Table walker requests started/completed, data/inst
system.cpu0.itb.walker.walkRequestOrigin_Completed::Data            0                       # Table walker requests started/completed, data/inst
system.cpu0.itb.walker.walkRequestOrigin_Completed::Inst            0                       # Table walker requests started/completed, data/inst
system.cpu0.itb.walker.walkRequestOrigin_Completed::total            0                       # Table walker requests started/completed, data/inst
system.cpu0.itb.walker.walkRequestOrigin::total            0                       # Table walker requests started/completed, data/inst
system.cpu0.itb.inst_hits                           0                       # ITB inst hits
system.cpu0.itb.inst_misses                         0                       # ITB inst misses
system.cpu0.itb.read_hits                           0                       # DTB read hits
system.cpu0.itb.read_misses                         0                       # DTB read misses
system.cpu0.itb.write_hits                          0                       # DTB write hits
system.cpu0.itb.write_misses                        0                       # DTB write misses
system.cpu0.itb.flush_tlb                           0                       # Number of times complete TLB was flushed
system.cpu0.itb.flush_tlb_mva                       0                       # Number of times TLB was flushed by MVA
system.cpu0.itb.flush_tlb_mva_asid                  0                       # Number of times TLB was flushed by MVA & ASID
system.cpu0.itb.flush_tlb_asid                      0                       # Number of times TLB was flushed by ASID
system.cpu0.itb.flush_entries                       0                       # Number of entries that have been flushed from TLB
system.cpu0.itb.align_faults                        0                       # Number of TLB faults due to alignment restrictions
system.cpu0.itb.prefetch_faults                     0                       # Number of TLB faults due to prefetch
system.cpu0.itb.domain_faults                       0                       # Number of TLB faults due to domain restrictions
system.cpu0.itb.perms_faults                        0                       # Number of TLB faults due to permissions restrictions
system.cpu0.itb.read_accesses                       0                       # DTB read accesses
system.cpu0.itb.write_accesses                      0                       # DTB write accesses
system.cpu0.itb.inst_accesses                       0                       # ITB inst accesses
system.cpu0.itb.hits                                0                       # DTB hits
system.cpu0.itb.misses                              0                       # DTB misses
system.cpu0.itb.accesses                            0                       # DTB accesses
system.cpu0.workload.numSyscalls                   34                       # Number of system calls
system.cpu0.pwrStateResidencyTicks::ON   367026203000                       # Cumulative time (in ticks) in various power states
system.cpu0.numCycles                       734052406                       # number of cpu cycles simulated
system.cpu0.numWorkItemsStarted                     0                       # number of work items this cpu started
system.cpu0.numWorkItemsCompleted                   0                       # number of work items this cpu completed
system.cpu0.committedInsts                  298666227                       # Number of instructions committed
system.cpu0.committedOps                    337436633                       # Number of ops (including micro ops) committed
system.cpu0.num_int_alu_accesses            304952190                       # Number of integer alu accesses
system.cpu0.num_fp_alu_accesses                    16                       # Number of float alu accesses
system.cpu0.num_vec_alu_accesses                    0                       # Number of vector alu accesses
system.cpu0.num_func_calls                   15592751                       # number of times a function call or return occured
system.cpu0.num_conditional_control_insts     40498943                       # number of instructions that are conditional controls
system.cpu0.num_int_insts                   304952190                       # number of integer instructions
system.cpu0.num_fp_insts                           16                       # number of float instructions
system.cpu0.num_vec_insts                           0                       # number of vector instructions
system.cpu0.num_int_register_reads          467370160                       # number of times the integer registers were read
system.cpu0.num_int_register_writes         225745629                       # number of times the integer registers were written
system.cpu0.num_fp_register_reads                  16                       # number of times the floating registers were read
system.cpu0.num_fp_register_writes                  0                       # number of times the floating registers were written
system.cpu0.num_vec_register_reads                  0                       # number of times the vector registers were read
system.cpu0.num_vec_register_writes                 0                       # number of times the vector registers were written
system.cpu0.num_cc_register_reads          1113568223                       # number of times the CC registers were read
system.cpu0.num_cc_register_writes          210591651                       # number of times the CC registers were written
system.cpu0.num_mem_refs                     61313925                       # number of memory refs
system.cpu0.num_load_insts                   33690874                       # Number of load instructions
system.cpu0.num_store_insts                  27623051                       # Number of store instructions
system.cpu0.num_idle_cycles                         0                       # Number of idle cycles
system.cpu0.num_busy_cycles                 734052406                       # Number of busy cycles
system.cpu0.not_idle_fraction                       1                       # Percentage of non-idle cycles
system.cpu0.idle_fraction                           0                       # Percentage of idle cycles
system.cpu0.Branches                         53080169                       # Number of branches fetched
system.cpu0.op_class::No_OpClass                    0      0.00%      0.00% # Class of executed instruction
system.cpu0.op_class::IntAlu                273585692     79.97%     79.97% # Class of executed instruction
system.cpu0.op_class::IntMult                 7166099      2.09%     82.06% # Class of executed instruction
system.cpu0.op_class::IntDiv                        0      0.00%     82.06% # Class of executed instruction
system.cpu0.op_class::FloatAdd                      0      0.00%     82.06% # Class of executed instruction
system.cpu0.op_class::FloatCmp                      0      0.00%     82.06% # Class of executed instruction
system.cpu0.op_class::FloatCvt                      0      0.00%     82.06% # Class of executed instruction
system.cpu0.op_class::FloatMult                     0      0.00%     82.06% # Class of executed instruction
system.cpu0.op_class::FloatMultAcc                  0      0.00%     82.06% # Class of executed instruction
system.cpu0.op_class::FloatDiv                      0      0.00%     82.06% # Class of executed instruction
system.cpu0.op_class::FloatMisc                     0      0.00%     82.06% # Class of executed instruction
system.cpu0.op_class::FloatSqrt                     0      0.00%     82.06% # Class of executed instruction
system.cpu0.op_class::SimdAdd                       0      0.00%     82.06% # Class of executed instruction
system.cpu0.op_class::SimdAddAcc                    0      0.00%     82.06% # Class of executed instruction
system.cpu0.op_class::SimdAlu                       0      0.00%     82.06% # Class of executed instruction
system.cpu0.op_class::SimdCmp                       0      0.00%     82.06% # Class of executed instruction
system.cpu0.op_class::SimdCvt                       0      0.00%     82.06% # Class of executed instruction
system.cpu0.op_class::SimdMisc                      0      0.00%     82.06% # Class of executed instruction
system.cpu0.op_class::SimdMult                      0      0.00%     82.06% # Class of executed instruction
system.cpu0.op_class::SimdMultAcc                   0      0.00%     82.06% # Class of executed instruction
system.cpu0.op_class::SimdShift                     0      0.00%     82.06% # Class of executed instruction
system.cpu0.op_class::SimdShiftAcc                  0      0.00%     82.06% # Class of executed instruction
system.cpu0.op_class::SimdSqrt                      0      0.00%     82.06% # Class of executed instruction
system.cpu0.op_class::SimdFloatAdd                  0      0.00%     82.06% # Class of executed instruction
system.cpu0.op_class::SimdFloatAlu                  0      0.00%     82.06% # Class of executed instruction
system.cpu0.op_class::SimdFloatCmp                  0      0.00%     82.06% # Class of executed instruction
system.cpu0.op_class::SimdFloatCvt                  0      0.00%     82.06% # Class of executed instruction
system.cpu0.op_class::SimdFloatDiv                  0      0.00%     82.06% # Class of executed instruction
system.cpu0.op_class::SimdFloatMisc             65792      0.02%     82.08% # Class of executed instruction
system.cpu0.op_class::SimdFloatMult                 0      0.00%     82.08% # Class of executed instruction
system.cpu0.op_class::SimdFloatMultAcc              0      0.00%     82.08% # Class of executed instruction
system.cpu0.op_class::SimdFloatSqrt                 0      0.00%     82.08% # Class of executed instruction
system.cpu0.op_class::MemRead                33690874      9.85%     91.93% # Class of executed instruction
system.cpu0.op_class::MemWrite               27623035      8.07%    100.00% # Class of executed instruction
system.cpu0.op_class::FloatMemRead                  0      0.00%    100.00% # Class of executed instruction
system.cpu0.op_class::FloatMemWrite                16      0.00%    100.00% # Class of executed instruction
system.cpu0.op_class::IprAccess                     0      0.00%    100.00% # Class of executed instruction
system.cpu0.op_class::InstPrefetch                  0      0.00%    100.00% # Class of executed instruction
system.cpu0.op_class::total                 342131508                       # Class of executed instruction
system.cpu0.dcache.tags.pwrStateResidencyTicks::UNDEFINED 367026203000                       # Cumulative time (in ticks) in various power states
system.cpu0.dcache.tags.replacements            32665                       # number of replacements
system.cpu0.dcache.tags.tagsinuse         1020.787046                       # Cycle average of tags in use
system.cpu0.dcache.tags.total_refs           57044153                       # Total number of references to valid blocks.
system.cpu0.dcache.tags.sampled_refs            33678                       # Sample count of references to valid blocks.
system.cpu0.dcache.tags.avg_refs          1693.810589                       # Average number of references to valid blocks.
system.cpu0.dcache.tags.warmup_cycle       2272382000                       # Cycle when the warmup percentage was hit.
system.cpu0.dcache.tags.occ_blocks::cpu0.data  1020.787046                       # Average occupied blocks per requestor
system.cpu0.dcache.tags.occ_percent::cpu0.data     0.996862                       # Average percentage of cache occupancy
system.cpu0.dcache.tags.occ_percent::total     0.996862                       # Average percentage of cache occupancy
system.cpu0.dcache.tags.occ_task_id_blocks::1024         1013                       # Occupied blocks per task id
system.cpu0.dcache.tags.age_task_id_blocks_1024::4         1013                       # Occupied blocks per task id
system.cpu0.dcache.tags.occ_task_id_percent::1024     0.989258                       # Percentage of cache occupancy per task id
system.cpu0.dcache.tags.tag_accesses        114189532                       # Number of tag accesses
system.cpu0.dcache.tags.data_accesses       114189532                       # Number of data accesses
system.cpu0.dcache.pwrStateResidencyTicks::UNDEFINED 367026203000                       # Cumulative time (in ticks) in various power states
system.cpu0.dcache.ReadReq_hits::cpu0.data     29493930                       # number of ReadReq hits
system.cpu0.dcache.ReadReq_hits::total       29493930                       # number of ReadReq hits
system.cpu0.dcache.WriteReq_hits::cpu0.data     27550088                       # number of WriteReq hits
system.cpu0.dcache.WriteReq_hits::total      27550088                       # number of WriteReq hits
system.cpu0.dcache.LoadLockedReq_hits::cpu0.data          109                       # number of LoadLockedReq hits
system.cpu0.dcache.LoadLockedReq_hits::total          109                       # number of LoadLockedReq hits
system.cpu0.dcache.StoreCondReq_hits::cpu0.data           73                       # number of StoreCondReq hits
system.cpu0.dcache.StoreCondReq_hits::total           73                       # number of StoreCondReq hits
system.cpu0.dcache.demand_hits::cpu0.data     57044018                       # number of demand (read+write) hits
system.cpu0.dcache.demand_hits::total        57044018                       # number of demand (read+write) hits
system.cpu0.dcache.overall_hits::cpu0.data     57044018                       # number of overall hits
system.cpu0.dcache.overall_hits::total       57044018                       # number of overall hits
system.cpu0.dcache.ReadReq_misses::cpu0.data          674                       # number of ReadReq misses
system.cpu0.dcache.ReadReq_misses::total          674                       # number of ReadReq misses
system.cpu0.dcache.WriteReq_misses::cpu0.data        33028                       # number of WriteReq misses
system.cpu0.dcache.WriteReq_misses::total        33028                       # number of WriteReq misses
system.cpu0.dcache.LoadLockedReq_misses::cpu0.data           10                       # number of LoadLockedReq misses
system.cpu0.dcache.LoadLockedReq_misses::total           10                       # number of LoadLockedReq misses
system.cpu0.dcache.StoreCondReq_misses::cpu0.data            3                       # number of StoreCondReq misses
system.cpu0.dcache.StoreCondReq_misses::total            3                       # number of StoreCondReq misses
system.cpu0.dcache.demand_misses::cpu0.data        33702                       # number of demand (read+write) misses
system.cpu0.dcache.demand_misses::total         33702                       # number of demand (read+write) misses
system.cpu0.dcache.overall_misses::cpu0.data        33702                       # number of overall misses
system.cpu0.dcache.overall_misses::total        33702                       # number of overall misses
system.cpu0.dcache.ReadReq_miss_latency::cpu0.data     32552500                       # number of ReadReq miss cycles
system.cpu0.dcache.ReadReq_miss_latency::total     32552500                       # number of ReadReq miss cycles
system.cpu0.dcache.WriteReq_miss_latency::cpu0.data  10555993500                       # number of WriteReq miss cycles
system.cpu0.dcache.WriteReq_miss_latency::total  10555993500                       # number of WriteReq miss cycles
system.cpu0.dcache.LoadLockedReq_miss_latency::cpu0.data       420000                       # number of LoadLockedReq miss cycles
system.cpu0.dcache.LoadLockedReq_miss_latency::total       420000                       # number of LoadLockedReq miss cycles
system.cpu0.dcache.StoreCondReq_miss_latency::cpu0.data       105000                       # number of StoreCondReq miss cycles
system.cpu0.dcache.StoreCondReq_miss_latency::total       105000                       # number of StoreCondReq miss cycles
system.cpu0.dcache.demand_miss_latency::cpu0.data  10588546000                       # number of demand (read+write) miss cycles
system.cpu0.dcache.demand_miss_latency::total  10588546000                       # number of demand (read+write) miss cycles
system.cpu0.dcache.overall_miss_latency::cpu0.data  10588546000                       # number of overall miss cycles
system.cpu0.dcache.overall_miss_latency::total  10588546000                       # number of overall miss cycles
system.cpu0.dcache.ReadReq_accesses::cpu0.data     29494604                       # number of ReadReq accesses(hits+misses)
system.cpu0.dcache.ReadReq_accesses::total     29494604                       # number of ReadReq accesses(hits+misses)
system.cpu0.dcache.WriteReq_accesses::cpu0.data     27583116                       # number of WriteReq accesses(hits+misses)
system.cpu0.dcache.WriteReq_accesses::total     27583116                       # number of WriteReq accesses(hits+misses)
system.cpu0.dcache.LoadLockedReq_accesses::cpu0.data          119                       # number of LoadLockedReq accesses(hits+misses)
system.cpu0.dcache.LoadLockedReq_accesses::total          119                       # number of LoadLockedReq accesses(hits+misses)
system.cpu0.dcache.StoreCondReq_accesses::cpu0.data           76                       # number of StoreCondReq accesses(hits+misses)
system.cpu0.dcache.StoreCondReq_accesses::total           76                       # number of StoreCondReq accesses(hits+misses)
system.cpu0.dcache.demand_accesses::cpu0.data     57077720                       # number of demand (read+write) accesses
system.cpu0.dcache.demand_accesses::total     57077720                       # number of demand (read+write) accesses
system.cpu0.dcache.overall_accesses::cpu0.data     57077720                       # number of overall (read+write) accesses
system.cpu0.dcache.overall_accesses::total     57077720                       # number of overall (read+write) accesses
system.cpu0.dcache.ReadReq_miss_rate::cpu0.data     0.000023                       # miss rate for ReadReq accesses
system.cpu0.dcache.ReadReq_miss_rate::total     0.000023                       # miss rate for ReadReq accesses
system.cpu0.dcache.WriteReq_miss_rate::cpu0.data     0.001197                       # miss rate for WriteReq accesses
system.cpu0.dcache.WriteReq_miss_rate::total     0.001197                       # miss rate for WriteReq accesses
system.cpu0.dcache.LoadLockedReq_miss_rate::cpu0.data     0.084034                       # miss rate for LoadLockedReq accesses
system.cpu0.dcache.LoadLockedReq_miss_rate::total     0.084034                       # miss rate for LoadLockedReq accesses
system.cpu0.dcache.StoreCondReq_miss_rate::cpu0.data     0.039474                       # miss rate for StoreCondReq accesses
system.cpu0.dcache.StoreCondReq_miss_rate::total     0.039474                       # miss rate for StoreCondReq accesses
system.cpu0.dcache.demand_miss_rate::cpu0.data     0.000590                       # miss rate for demand accesses
system.cpu0.dcache.demand_miss_rate::total     0.000590                       # miss rate for demand accesses
system.cpu0.dcache.overall_miss_rate::cpu0.data     0.000590                       # miss rate for overall accesses
system.cpu0.dcache.overall_miss_rate::total     0.000590                       # miss rate for overall accesses
system.cpu0.dcache.ReadReq_avg_miss_latency::cpu0.data 48297.477745                       # average ReadReq miss latency
system.cpu0.dcache.ReadReq_avg_miss_latency::total 48297.477745                       # average ReadReq miss latency
system.cpu0.dcache.WriteReq_avg_miss_latency::cpu0.data 319607.408865                       # average WriteReq miss latency
system.cpu0.dcache.WriteReq_avg_miss_latency::total 319607.408865                       # average WriteReq miss latency
system.cpu0.dcache.LoadLockedReq_avg_miss_latency::cpu0.data        42000                       # average LoadLockedReq miss latency
system.cpu0.dcache.LoadLockedReq_avg_miss_latency::total        42000                       # average LoadLockedReq miss latency
system.cpu0.dcache.StoreCondReq_avg_miss_latency::cpu0.data        35000                       # average StoreCondReq miss latency
system.cpu0.dcache.StoreCondReq_avg_miss_latency::total        35000                       # average StoreCondReq miss latency
system.cpu0.dcache.demand_avg_miss_latency::cpu0.data 314181.532253                       # average overall miss latency
system.cpu0.dcache.demand_avg_miss_latency::total 314181.532253                       # average overall miss latency
system.cpu0.dcache.overall_avg_miss_latency::cpu0.data 314181.532253                       # average overall miss latency
system.cpu0.dcache.overall_avg_miss_latency::total 314181.532253                       # average overall miss latency
system.cpu0.dcache.blocked_cycles::no_mshrs            0                       # number of cycles access was blocked
system.cpu0.dcache.blocked_cycles::no_targets            0                       # number of cycles access was blocked
system.cpu0.dcache.blocked::no_mshrs                0                       # number of cycles access was blocked
system.cpu0.dcache.blocked::no_targets              0                       # number of cycles access was blocked
system.cpu0.dcache.avg_blocked_cycles::no_mshrs          nan                       # average number of cycles each access was blocked
system.cpu0.dcache.avg_blocked_cycles::no_targets          nan                       # average number of cycles each access was blocked
system.cpu0.dcache.writebacks::writebacks        32177                       # number of writebacks
system.cpu0.dcache.writebacks::total            32177                       # number of writebacks
system.cpu0.dcache.ReadReq_mshr_misses::cpu0.data          674                       # number of ReadReq MSHR misses
system.cpu0.dcache.ReadReq_mshr_misses::total          674                       # number of ReadReq MSHR misses
system.cpu0.dcache.WriteReq_mshr_misses::cpu0.data        33028                       # number of WriteReq MSHR misses
system.cpu0.dcache.WriteReq_mshr_misses::total        33028                       # number of WriteReq MSHR misses
system.cpu0.dcache.LoadLockedReq_mshr_misses::cpu0.data           10                       # number of LoadLockedReq MSHR misses
system.cpu0.dcache.LoadLockedReq_mshr_misses::total           10                       # number of LoadLockedReq MSHR misses
system.cpu0.dcache.StoreCondReq_mshr_misses::cpu0.data            3                       # number of StoreCondReq MSHR misses
system.cpu0.dcache.StoreCondReq_mshr_misses::total            3                       # number of StoreCondReq MSHR misses
system.cpu0.dcache.demand_mshr_misses::cpu0.data        33702                       # number of demand (read+write) MSHR misses
system.cpu0.dcache.demand_mshr_misses::total        33702                       # number of demand (read+write) MSHR misses
system.cpu0.dcache.overall_mshr_misses::cpu0.data        33702                       # number of overall MSHR misses
system.cpu0.dcache.overall_mshr_misses::total        33702                       # number of overall MSHR misses
system.cpu0.dcache.ReadReq_mshr_miss_latency::cpu0.data     31878500                       # number of ReadReq MSHR miss cycles
system.cpu0.dcache.ReadReq_mshr_miss_latency::total     31878500                       # number of ReadReq MSHR miss cycles
system.cpu0.dcache.WriteReq_mshr_miss_latency::cpu0.data  10522965500                       # number of WriteReq MSHR miss cycles
system.cpu0.dcache.WriteReq_mshr_miss_latency::total  10522965500                       # number of WriteReq MSHR miss cycles
system.cpu0.dcache.LoadLockedReq_mshr_miss_latency::cpu0.data       410000                       # number of LoadLockedReq MSHR miss cycles
system.cpu0.dcache.LoadLockedReq_mshr_miss_latency::total       410000                       # number of LoadLockedReq MSHR miss cycles
system.cpu0.dcache.StoreCondReq_mshr_miss_latency::cpu0.data       102000                       # number of StoreCondReq MSHR miss cycles
system.cpu0.dcache.StoreCondReq_mshr_miss_latency::total       102000                       # number of StoreCondReq MSHR miss cycles
system.cpu0.dcache.demand_mshr_miss_latency::cpu0.data  10554844000                       # number of demand (read+write) MSHR miss cycles
system.cpu0.dcache.demand_mshr_miss_latency::total  10554844000                       # number of demand (read+write) MSHR miss cycles
system.cpu0.dcache.overall_mshr_miss_latency::cpu0.data  10554844000                       # number of overall MSHR miss cycles
system.cpu0.dcache.overall_mshr_miss_latency::total  10554844000                       # number of overall MSHR miss cycles
system.cpu0.dcache.ReadReq_mshr_miss_rate::cpu0.data     0.000023                       # mshr miss rate for ReadReq accesses
system.cpu0.dcache.ReadReq_mshr_miss_rate::total     0.000023                       # mshr miss rate for ReadReq accesses
system.cpu0.dcache.WriteReq_mshr_miss_rate::cpu0.data     0.001197                       # mshr miss rate for WriteReq accesses
system.cpu0.dcache.WriteReq_mshr_miss_rate::total     0.001197                       # mshr miss rate for WriteReq accesses
system.cpu0.dcache.LoadLockedReq_mshr_miss_rate::cpu0.data     0.084034                       # mshr miss rate for LoadLockedReq accesses
system.cpu0.dcache.LoadLockedReq_mshr_miss_rate::total     0.084034                       # mshr miss rate for LoadLockedReq accesses
system.cpu0.dcache.StoreCondReq_mshr_miss_rate::cpu0.data     0.039474                       # mshr miss rate for StoreCondReq accesses
system.cpu0.dcache.StoreCondReq_mshr_miss_rate::total     0.039474                       # mshr miss rate for StoreCondReq accesses
system.cpu0.dcache.demand_mshr_miss_rate::cpu0.data     0.000590                       # mshr miss rate for demand accesses
system.cpu0.dcache.demand_mshr_miss_rate::total     0.000590                       # mshr miss rate for demand accesses
system.cpu0.dcache.overall_mshr_miss_rate::cpu0.data     0.000590                       # mshr miss rate for overall accesses
system.cpu0.dcache.overall_mshr_miss_rate::total     0.000590                       # mshr miss rate for overall accesses
system.cpu0.dcache.ReadReq_avg_mshr_miss_latency::cpu0.data 47297.477745                       # average ReadReq mshr miss latency
system.cpu0.dcache.ReadReq_avg_mshr_miss_latency::total 47297.477745                       # average ReadReq mshr miss latency
system.cpu0.dcache.WriteReq_avg_mshr_miss_latency::cpu0.data 318607.408865                       # average WriteReq mshr miss latency
system.cpu0.dcache.WriteReq_avg_mshr_miss_latency::total 318607.408865                       # average WriteReq mshr miss latency
system.cpu0.dcache.LoadLockedReq_avg_mshr_miss_latency::cpu0.data        41000                       # average LoadLockedReq mshr miss latency
system.cpu0.dcache.LoadLockedReq_avg_mshr_miss_latency::total        41000                       # average LoadLockedReq mshr miss latency
system.cpu0.dcache.StoreCondReq_avg_mshr_miss_latency::cpu0.data        34000                       # average StoreCondReq mshr miss latency
system.cpu0.dcache.StoreCondReq_avg_mshr_miss_latency::total        34000                       # average StoreCondReq mshr miss latency
system.cpu0.dcache.demand_avg_mshr_miss_latency::cpu0.data 313181.532253                       # average overall mshr miss latency
[...]
system.tol2bus0.pkt_size_system.cpu0.icache.mem_side::system.l20.cpu_side      8539008                       # Cumulative packet size per connected master and slave (bytes)
system.tol2bus0.pkt_size_system.cpu0.dcache.mem_side::system.l20.cpu_side      4217344                       # Cumulative packet size per connected master and slave (bytes)
system.tol2bus0.pkt_size_system.cpu1.icache.mem_side::system.l20.cpu_side         3264                       # Cumulative packet size per connected master and slave (bytes)
system.tol2bus0.pkt_size_system.cpu1.dcache.mem_side::system.l20.cpu_side     20833344                       # Cumulative packet size per connected master and slave (bytes)
system.tol2bus0.pkt_size_system.cpu2.icache.mem_side::system.l20.cpu_side         3264                       # Cumulative packet size per connected master and slave (bytes)
system.tol2bus0.pkt_size_system.cpu2.dcache.mem_side::system.l20.cpu_side     20833472                       # Cumulative packet size per connected master and slave (bytes)
system.tol2bus0.pkt_size_system.cpu3.icache.mem_side::system.l20.cpu_side         3264                       # Cumulative packet size per connected master and slave (bytes)
system.tol2bus0.pkt_size_system.cpu3.dcache.mem_side::system.l20.cpu_side     31248576                       # Cumulative packet size per connected master and slave (bytes)
system.tol2bus0.pkt_size::total              85681536                       # Cumulative packet size per connected master and slave (bytes)
system.tol2bus0.snoops                       11825029                       # Total snoops (count)
system.tol2bus0.snoopTraffic                480709760                       # Total snoop traffic (bytes)
system.tol2bus0.snoop_fanout::samples        10786834                       # Request fanout histogram
system.tol2bus0.snoop_fanout::mean           1.720015                       # Request fanout histogram
system.tol2bus0.snoop_fanout::stdev          0.587988                       # Request fanout histogram
system.tol2bus0.snoop_fanout::underflows            0      0.00%      0.00% # Request fanout histogram
system.tol2bus0.snoop_fanout::0                126272      1.17%      1.17% # Request fanout histogram
system.tol2bus0.snoop_fanout::1               3418687     31.69%     32.86% # Request fanout histogram
system.tol2bus0.snoop_fanout::2               6590831     61.10%     93.96% # Request fanout histogram
system.tol2bus0.snoop_fanout::3                651014      6.04%    100.00% # Request fanout histogram
system.tol2bus0.snoop_fanout::4                    27      0.00%    100.00% # Request fanout histogram
system.tol2bus0.snoop_fanout::5                     2      0.00%    100.00% # Request fanout histogram
system.tol2bus0.snoop_fanout::6                     1      0.00%    100.00% # Request fanout histogram
system.tol2bus0.snoop_fanout::7                     0      0.00%    100.00% # Request fanout histogram
system.tol2bus0.snoop_fanout::8                     0      0.00%    100.00% # Request fanout histogram
system.tol2bus0.snoop_fanout::overflows             0      0.00%    100.00% # Request fanout histogram
system.tol2bus0.snoop_fanout::min_value             0                       # Request fanout histogram
system.tol2bus0.snoop_fanout::max_value             6                       # Request fanout histogram
system.tol2bus0.snoop_fanout::total          10786834                       # Request fanout histogram
system.tol2bus0.reqLayer0.occupancy        4958710496                       # Layer occupancy (ticks)
system.tol2bus0.reqLayer0.utilization             1.4                       # Layer utilization (%)
system.tol2bus0.snoopLayer0.occupancy      1789965771                       # Layer occupancy (ticks)
system.tol2bus0.snoopLayer0.utilization           0.5                       # Layer utilization (%)
system.tol2bus0.respLayer0.occupancy        100446000                       # Layer occupancy (ticks)
system.tol2bus0.respLayer0.utilization            0.0                       # Layer utilization (%)
system.tol2bus0.respLayer1.occupancy         50559999                       # Layer occupancy (ticks)
system.tol2bus0.respLayer1.utilization            0.0                       # Layer utilization (%)
system.tol2bus0.respLayer4.occupancy            75998                       # Layer occupancy (ticks)
system.tol2bus0.respLayer4.utilization            0.0                       # Layer utilization (%)
system.tol2bus0.respLayer5.occupancy       3702302992                       # Layer occupancy (ticks)
system.tol2bus0.respLayer5.utilization            1.0                       # Layer utilization (%)
system.tol2bus0.respLayer8.occupancy            89961                       # Layer occupancy (ticks)
system.tol2bus0.respLayer8.utilization            0.0                       # Layer utilization (%)
system.tol2bus0.respLayer9.occupancy       3702316483                       # Layer occupancy (ticks)
system.tol2bus0.respLayer9.utilization            1.0                       # Layer utilization (%)
system.tol2bus0.respLayer12.occupancy           86961                       # Layer occupancy (ticks)
system.tol2bus0.respLayer12.utilization           0.0                       # Layer utilization (%)
system.tol2bus0.respLayer13.occupancy      3702330984                       # Layer occupancy (ticks)
system.tol2bus0.respLayer13.utilization           1.0                       # Layer utilization (%)
system.tol2bus1.snoop_filter.tot_requests      3418153                       # Total number of requests made to the snoop filter.
system.tol2bus1.snoop_filter.hit_single_requests       488325                       # Number of requests hitting in the snoop filter with a single holder of the requested data.
system.tol2bus1.snoop_filter.hit_multi_requests      2441280                       # Number of requests hitting in the snoop filter with multiple (>1) holders of the requested data.
system.tol2bus1.snoop_filter.tot_snoops       3173359                       # Total number of snoops made to the snoop filter.
system.tol2bus1.snoop_filter.hit_single_snoops           18                       # Number of snoops hitting in the snoop filter with a single holder of the requested data.
system.tol2bus1.snoop_filter.hit_multi_snoops      3173341                       # Number of snoops hitting in the snoop filter with multiple (>1) holders of the requested data.
system.tol2bus1.pwrStateResidencyTicks::UNDEFINED 367026203000                       # Cumulative time (in ticks) in various power states
system.tol2bus1.trans_dist::ReadResp           732807                       # Transaction distribution
system.tol2bus1.trans_dist::ReadRespWithInvalidate      2685124                       # Transaction distribution
system.tol2bus1.trans_dist::WritebackClean            3                       # Transaction distribution
system.tol2bus1.trans_dist::UpgradeReq             42                       # Transaction distribution
system.tol2bus1.trans_dist::SCUpgradeReq      3173343                       # Transaction distribution
system.tol2bus1.trans_dist::UpgradeResp            63                       # Transaction distribution
system.tol2bus1.trans_dist::SCUpgradeFailReq           22                       # Transaction distribution
system.tol2bus1.trans_dist::UpgradeFailResp           24                       # Transaction distribution
system.tol2bus1.trans_dist::ReadExReq             167                       # Transaction distribution
system.tol2bus1.trans_dist::ReadExResp            167                       # Transaction distribution
system.tol2bus1.trans_dist::ReadCleanReq          229                       # Transaction distribution
system.tol2bus1.trans_dist::ReadSharedReq      3417706                       # Transaction distribution
system.tol2bus1.pkt_count_system.cpu4.icache.mem_side::system.l21.cpu_side          105                       # Packet count per connected master and slave (bytes)
system.tol2bus1.pkt_count_system.cpu4.dcache.mem_side::system.l21.cpu_side      2278443                       # Packet count per connected master and slave (bytes)
system.tol2bus1.pkt_count_system.cpu5.icache.mem_side::system.l21.cpu_side          154                       # Packet count per connected master and slave (bytes)
system.tol2bus1.pkt_count_system.cpu5.dcache.mem_side::system.l21.cpu_side          444                       # Packet count per connected master and slave (bytes)
system.tol2bus1.pkt_count_system.cpu6.icache.mem_side::system.l21.cpu_side          101                       # Packet count per connected master and slave (bytes)
system.tol2bus1.pkt_count_system.cpu6.dcache.mem_side::system.l21.cpu_side      2278434                       # Packet count per connected master and slave (bytes)
system.tol2bus1.pkt_count_system.cpu7.icache.mem_side::system.l21.cpu_side          101                       # Packet count per connected master and slave (bytes)
system.tol2bus1.pkt_count_system.cpu7.dcache.mem_side::system.l21.cpu_side      2278431                       # Packet count per connected master and slave (bytes)
system.tol2bus1.pkt_count::total              6836213                       # Packet count per connected master and slave (bytes)
system.tol2bus1.pkt_size_system.cpu4.icache.mem_side::system.l21.cpu_side         3392                       # Cumulative packet size per connected master and slave (bytes)
system.tol2bus1.pkt_size_system.cpu4.dcache.mem_side::system.l21.cpu_side     72908736                       # Cumulative packet size per connected master and slave (bytes)
system.tol2bus1.pkt_size_system.cpu5.icache.mem_side::system.l21.cpu_side         4928                       # Cumulative packet size per connected master and slave (bytes)
system.tol2bus1.pkt_size_system.cpu5.dcache.mem_side::system.l21.cpu_side        12928                       # Cumulative packet size per connected master and slave (bytes)
system.tol2bus1.pkt_size_system.cpu6.icache.mem_side::system.l21.cpu_side         3264                       # Cumulative packet size per connected master and slave (bytes)
system.tol2bus1.pkt_size_system.cpu6.dcache.mem_side::system.l21.cpu_side     72908800                       # Cumulative packet size per connected master and slave (bytes)
system.tol2bus1.pkt_size_system.cpu7.icache.mem_side::system.l21.cpu_side         3264                       # Cumulative packet size per connected master and slave (bytes)
system.tol2bus1.pkt_size_system.cpu7.dcache.mem_side::system.l21.cpu_side     72908608                       # Cumulative packet size per connected master and slave (bytes)
system.tol2bus1.pkt_size::total             218753920                       # Cumulative packet size per connected master and slave (bytes)
system.tol2bus1.snoops                        3173522                       # Total snoops (count)
system.tol2bus1.snoopTraffic                     8000                       # Total snoop traffic (bytes)
system.tol2bus1.snoop_fanout::samples         6591509                       # Request fanout histogram
system.tol2bus1.snoop_fanout::mean           2.259125                       # Request fanout histogram
system.tol2bus1.snoop_fanout::stdev          0.885945                       # Request fanout histogram
system.tol2bus1.snoop_fanout::underflows            0      0.00%      0.00% # Request fanout histogram
system.tol2bus1.snoop_fanout::0                488560      7.41%      7.41% # Request fanout histogram
system.tol2bus1.snoop_fanout::1                488369      7.41%     14.82% # Request fanout histogram
system.tol2bus1.snoop_fanout::2               2441113     37.03%     51.86% # Request fanout histogram
system.tol2bus1.snoop_fanout::3               3173434     48.14%    100.00% # Request fanout histogram
system.tol2bus1.snoop_fanout::4                    27      0.00%    100.00% # Request fanout histogram
system.tol2bus1.snoop_fanout::5                     2      0.00%    100.00% # Request fanout histogram
system.tol2bus1.snoop_fanout::6                     2      0.00%    100.00% # Request fanout histogram
system.tol2bus1.snoop_fanout::7                     2      0.00%    100.00% # Request fanout histogram
system.tol2bus1.snoop_fanout::8                     0      0.00%    100.00% # Request fanout histogram
system.tol2bus1.snoop_fanout::overflows             0      0.00%    100.00% # Request fanout histogram
system.tol2bus1.snoop_fanout::min_value             0                       # Request fanout histogram
system.tol2bus1.snoop_fanout::max_value             7                       # Request fanout histogram
system.tol2bus1.snoop_fanout::total           6591509                       # Request fanout histogram
system.tol2bus1.reqLayer0.occupancy        1709080498                       # Layer occupancy (ticks)
system.tol2bus1.reqLayer0.utilization             0.5                       # Layer utilization (%)
system.tol2bus1.snoopLayer0.occupancy           51492                       # Layer occupancy (ticks)
system.tol2bus1.snoopLayer0.utilization           0.0                       # Layer utilization (%)
system.tol2bus1.respLayer0.occupancy            90447                       # Layer occupancy (ticks)
system.tol2bus1.respLayer0.utilization            0.0                       # Layer utilization (%)
system.tol2bus1.respLayer1.occupancy       2276133701                       # Layer occupancy (ticks)
system.tol2bus1.respLayer1.utilization            0.6                       # Layer utilization (%)
system.tol2bus1.respLayer4.occupancy           116498                       # Layer occupancy (ticks)
system.tol2bus1.respLayer4.utilization            0.0                       # Layer utilization (%)
system.tol2bus1.respLayer5.occupancy           324997                       # Layer occupancy (ticks)
system.tol2bus1.respLayer5.utilization            0.0                       # Layer utilization (%)
system.tol2bus1.respLayer8.occupancy            88452                       # Layer occupancy (ticks)
system.tol2bus1.respLayer8.utilization            0.0                       # Layer utilization (%)
system.tol2bus1.respLayer9.occupancy       1708846470                       # Layer occupancy (ticks)
system.tol2bus1.respLayer9.utilization            0.5                       # Layer utilization (%)
system.tol2bus1.respLayer12.occupancy           89451                       # Layer occupancy (ticks)
system.tol2bus1.respLayer12.utilization           0.0                       # Layer utilization (%)
system.tol2bus1.respLayer13.occupancy      2277266322                       # Layer occupancy (ticks)
system.tol2bus1.respLayer13.utilization           0.6                       # Layer utilization (%)
system.tol3bus.snoop_filter.tot_requests      4372836                       # Total number of requests made to the snoop filter.
system.tol3bus.snoop_filter.hit_single_requests        25864                       # Number of requests hitting in the snoop filter with a single holder of the requested data.
system.tol3bus.snoop_filter.hit_multi_requests      4312532                       # Number of requests hitting in the snoop filter with multiple (>1) holders of the requested data.
system.tol3bus.snoop_filter.tot_snoops             76                       # Total number of snoops made to the snoop filter.
system.tol3bus.snoop_filter.hit_single_snoops           76                       # Number of snoops hitting in the snoop filter with a single holder of the requested data.
system.tol3bus.snoop_filter.hit_multi_snoops            0                       # Number of snoops hitting in the snoop filter with multiple (>1) holders of the requested data.
system.tol3bus.pwrStateResidencyTicks::UNDEFINED 367026203000                       # Cumulative time (in ticks) in various power states
system.tol3bus.trans_dist::ReadResp           1140583                       # Transaction distribution
system.tol3bus.trans_dist::WritebackDirty        26755                       # Transaction distribution
system.tol3bus.trans_dist::CleanEvict             589                       # Transaction distribution
system.tol3bus.trans_dist::UpgradeReq              48                       # Transaction distribution
system.tol3bus.trans_dist::SCUpgradeReq       3173349                       # Transaction distribution
system.tol3bus.trans_dist::UpgradeResp             39                       # Transaction distribution
system.tol3bus.trans_dist::SCUpgradeFailReq            5                       # Transaction distribution
system.tol3bus.trans_dist::UpgradeFailResp            5                       # Transaction distribution
system.tol3bus.trans_dist::ReadExReq            33221                       # Transaction distribution
system.tol3bus.trans_dist::ReadExResp           33215                       # Transaction distribution
system.tol3bus.trans_dist::ReadSharedReq      1140583                       # Transaction distribution
system.tol3bus.pkt_count_system.l20.mem_side::system.l3.cpu_side      3267583                       # Packet count per connected master and slave (bytes)
system.tol3bus.pkt_count_system.l21.mem_side::system.l3.cpu_side      1139804                       # Packet count per connected master and slave (bytes)
system.tol3bus.pkt_count::total               4407387                       # Packet count per connected master and slave (bytes)
system.tol3bus.pkt_size_system.l20.mem_side::system.l3.cpu_side      3808512                       # Cumulative packet size per connected master and slave (bytes)
system.tol3bus.pkt_size_system.l21.mem_side::system.l3.cpu_side        16128                       # Cumulative packet size per connected master and slave (bytes)
system.tol3bus.pkt_size::total                3824640                       # Cumulative packet size per connected master and slave (bytes)
system.tol3bus.snoops                         4314369                       # Total snoops (count)
system.tol3bus.snoopTraffic                  73011072                       # Total snoop traffic (bytes)
system.tol3bus.snoop_fanout::samples          4348920                       # Request fanout histogram
system.tol3bus.snoop_fanout::mean            0.991694                       # Request fanout histogram
system.tol3bus.snoop_fanout::stdev           0.090755                       # Request fanout histogram
system.tol3bus.snoop_fanout::underflows             0      0.00%      0.00% # Request fanout histogram
system.tol3bus.snoop_fanout::0                  36120      0.83%      0.83% # Request fanout histogram
system.tol3bus.snoop_fanout::1                4312800     99.17%    100.00% # Request fanout histogram
system.tol3bus.snoop_fanout::2                      0      0.00%    100.00% # Request fanout histogram
system.tol3bus.snoop_fanout::overflows              0      0.00%    100.00% # Request fanout histogram
system.tol3bus.snoop_fanout::min_value              0                       # Request fanout histogram
system.tol3bus.snoop_fanout::max_value              1                       # Request fanout histogram
system.tol3bus.snoop_fanout::total            4348920                       # Request fanout histogram
system.tol3bus.reqLayer0.occupancy          624960499                       # Layer occupancy (ticks)
system.tol3bus.reqLayer0.utilization              0.2                       # Layer utilization (%)
system.tol3bus.respLayer0.occupancy          51488490                       # Layer occupancy (ticks)
system.tol3bus.respLayer0.utilization             0.0                       # Layer utilization (%)
system.tol3bus.respLayer1.occupancy        1709416211                       # Layer occupancy (ticks)
system.tol3bus.respLayer1.utilization             0.5                       # Layer utilization (%)

---------- End Simulation Statistics   ----------
