
---------- Begin Simulation Statistics ----------
sim_seconds                                  0.130619                       # Number of seconds simulated
sim_ticks                                130619352500                       # Number of ticks simulated
final_tick                               130619352500                       # Number of ticks from beginning of simulation (restored from checkpoints and never reset)
sim_freq                                 1000000000000                       # Frequency of simulated ticks
host_inst_rate                                 542155                       # Simulator instruction rate (inst/s)
host_op_rate                                   564106                       # Simulator op (including micro ops) rate (op/s)
host_tick_rate                              175830033                       # Simulator tick rate (ticks/s)
host_mem_usage                                 676364                       # Number of bytes of host memory used
host_seconds                                   742.87                       # Real time elapsed on the host
sim_insts                                   402752346                       # Number of instructions simulated
sim_ops                                     419059294                       # Number of ops (including micro ops) simulated
system.voltage_domain.voltage                       1                       # Voltage in Volts
system.clk_domain.clock                          1000                       # Clock period in ticks
system.mem_ctrls.pwrStateResidencyTicks::UNDEFINED 130619352500                       # Cumulative time (in ticks) in various power states
system.mem_ctrls.bytes_read::cpu.inst           68160                       # Number of bytes read from this memory
system.mem_ctrls.bytes_read::cpu.data           37824                       # Number of bytes read from this memory
system.mem_ctrls.bytes_read::l2.prefetcher        97984                       # Number of bytes read from this memory
system.mem_ctrls.bytes_read::total             203968                       # Number of bytes read from this memory
system.mem_ctrls.bytes_inst_read::cpu.inst        68160                       # Number of instructions bytes read from this memory
system.mem_ctrls.bytes_inst_read::total         68160                       # Number of instructions bytes read from this memory
system.mem_ctrls.num_reads::cpu.inst             1065                       # Number of read requests responded to by this memory
system.mem_ctrls.num_reads::cpu.data              591                       # Number of read requests responded to by this memory
system.mem_ctrls.num_reads::l2.prefetcher         1531                       # Number of read requests responded to by this memory
system.mem_ctrls.num_reads::total                3187                       # Number of read requests responded to by this memory
system.mem_ctrls.bw_read::cpu.inst             521822                       # Total read bandwidth from this memory (bytes/s)
system.mem_ctrls.bw_read::cpu.data             289574                       # Total read bandwidth from this memory (bytes/s)
system.mem_ctrls.bw_read::l2.prefetcher        750149                       # Total read bandwidth from this memory (bytes/s)
system.mem_ctrls.bw_read::total               1561545                       # Total read bandwidth from this memory (bytes/s)
system.mem_ctrls.bw_inst_read::cpu.inst        521822                       # Instruction read bandwidth from this memory (bytes/s)
system.mem_ctrls.bw_inst_read::total           521822                       # Instruction read bandwidth from this memory (bytes/s)
system.mem_ctrls.bw_total::cpu.inst            521822                       # Total bandwidth to/from this memory (bytes/s)
system.mem_ctrls.bw_total::cpu.data            289574                       # Total bandwidth to/from this memory (bytes/s)
system.mem_ctrls.bw_total::l2.prefetcher       750149                       # Total bandwidth to/from this memory (bytes/s)
system.mem_ctrls.bw_total::total              1561545                       # Total bandwidth to/from this memory (bytes/s)
system.mem_ctrls.readReqs                        3187                       # Number of read requests accepted
system.mem_ctrls.writeReqs                          0                       # Number of write requests accepted
system.mem_ctrls.readBursts                      3187                       # Number of DRAM read bursts, including those serviced by the write queue
system.mem_ctrls.writeBursts                        0                       # Number of DRAM write bursts, including those merged in the write queue
system.mem_ctrls.bytesReadDRAM                 203968                       # Total number of bytes read from DRAM
system.mem_ctrls.bytesReadWrQ                       0                       # Total number of bytes read from write queue
system.mem_ctrls.bytesWritten                       0                       # Total number of bytes written to DRAM
system.mem_ctrls.bytesReadSys                  203968                       # Total read bytes from the system interface side
system.mem_ctrls.bytesWrittenSys                    0                       # Total written bytes from the system interface side
system.mem_ctrls.servicedByWrQ                      0                       # Number of DRAM read bursts serviced by the write queue
system.mem_ctrls.mergedWrBursts                     0                       # Number of DRAM write bursts merged with an existing one
system.mem_ctrls.neitherReadNorWriteReqs            0                       # Number of requests that are neither read nor write
system.mem_ctrls.perBankRdBursts::0               120                       # Per bank write bursts
system.mem_ctrls.perBankRdBursts::1               161                       # Per bank write bursts
system.mem_ctrls.perBankRdBursts::2               227                       # Per bank write bursts
system.mem_ctrls.perBankRdBursts::3               204                       # Per bank write bursts
system.mem_ctrls.perBankRdBursts::4               263                       # Per bank write bursts
system.mem_ctrls.perBankRdBursts::5               283                       # Per bank write bursts
system.mem_ctrls.perBankRdBursts::6               209                       # Per bank write bursts
system.mem_ctrls.perBankRdBursts::7               257                       # Per bank write bursts
system.mem_ctrls.perBankRdBursts::8               205                       # Per bank write bursts
system.mem_ctrls.perBankRdBursts::9               140                       # Per bank write bursts
system.mem_ctrls.perBankRdBursts::10              243                       # Per bank write bursts
system.mem_ctrls.perBankRdBursts::11              159                       # Per bank write bursts
system.mem_ctrls.perBankRdBursts::12              206                       # Per bank write bursts
system.mem_ctrls.perBankRdBursts::13              405                       # Per bank write bursts
system.mem_ctrls.perBankRdBursts::14               71                       # Per bank write bursts
system.mem_ctrls.perBankRdBursts::15               34                       # Per bank write bursts
system.mem_ctrls.perBankWrBursts::0                 0                       # Per bank write bursts
system.mem_ctrls.perBankWrBursts::1                 0                       # Per bank write bursts
system.mem_ctrls.perBankWrBursts::2                 0                       # Per bank write bursts
system.mem_ctrls.perBankWrBursts::3                 0                       # Per bank write bursts
system.mem_ctrls.perBankWrBursts::4                 0                       # Per bank write bursts
system.mem_ctrls.perBankWrBursts::5                 0                       # Per bank write bursts
system.mem_ctrls.perBankWrBursts::6                 0                       # Per bank write bursts
system.mem_ctrls.perBankWrBursts::7                 0                       # Per bank write bursts
system.mem_ctrls.perBankWrBursts::8                 0                       # Per bank write bursts
system.mem_ctrls.perBankWrBursts::9                 0                       # Per bank write bursts
system.mem_ctrls.perBankWrBursts::10                0                       # Per bank write bursts
system.mem_ctrls.perBankWrBursts::11                0                       # Per bank write bursts
system.mem_ctrls.perBankWrBursts::12                0                       # Per bank write bursts
system.mem_ctrls.perBankWrBursts::13                0                       # Per bank write bursts
system.mem_ctrls.perBankWrBursts::14                0                       # Per bank write bursts
system.mem_ctrls.perBankWrBursts::15                0                       # Per bank write bursts
system.mem_ctrls.numRdRetry                         0                       # Number of times read queue was full causing retry
system.mem_ctrls.numWrRetry                         0                       # Number of times write queue was full causing retry
system.mem_ctrls.totGap                  130619274500                       # Total gap between requests
system.mem_ctrls.readPktSize::0                     0                       # Read request sizes (log2)
system.mem_ctrls.readPktSize::1                     0                       # Read request sizes (log2)
system.mem_ctrls.readPktSize::2                     0                       # Read request sizes (log2)
system.mem_ctrls.readPktSize::3                     0                       # Read request sizes (log2)
system.mem_ctrls.readPktSize::4                     0                       # Read request sizes (log2)
system.mem_ctrls.readPktSize::5                     0                       # Read request sizes (log2)
system.mem_ctrls.readPktSize::6                  3187                       # Read request sizes (log2)
system.mem_ctrls.writePktSize::0                    0                       # Write request sizes (log2)
system.mem_ctrls.writePktSize::1                    0                       # Write request sizes (log2)
system.mem_ctrls.writePktSize::2                    0                       # Write request sizes (log2)
system.mem_ctrls.writePktSize::3                    0                       # Write request sizes (log2)
system.mem_ctrls.writePktSize::4                    0                       # Write request sizes (log2)
system.mem_ctrls.writePktSize::5                    0                       # Write request sizes (log2)
system.mem_ctrls.writePktSize::6                    0                       # Write request sizes (log2)
system.mem_ctrls.rdQLenPdf::0                    1289                       # What read queue length does an incoming req see
system.mem_ctrls.rdQLenPdf::1                    1232                       # What read queue length does an incoming req see
system.mem_ctrls.rdQLenPdf::2                     300                       # What read queue length does an incoming req see
system.mem_ctrls.rdQLenPdf::3                     139                       # What read queue length does an incoming req see
system.mem_ctrls.rdQLenPdf::4                      75                       # What read queue length does an incoming req see
system.mem_ctrls.rdQLenPdf::5                      48                       # What read queue length does an incoming req see
system.mem_ctrls.rdQLenPdf::6                      33                       # What read queue length does an incoming req see
system.mem_ctrls.rdQLenPdf::7                      34                       # What read queue length does an incoming req see
system.mem_ctrls.rdQLenPdf::8                      29                       # What read queue length does an incoming req see
system.mem_ctrls.rdQLenPdf::9                       5                       # What read queue length does an incoming req see
system.mem_ctrls.rdQLenPdf::10                      1                       # What read queue length does an incoming req see
system.mem_ctrls.rdQLenPdf::11                      2                       # What read queue length does an incoming req see
system.mem_ctrls.rdQLenPdf::12                      0                       # What read queue length does an incoming req see
system.mem_ctrls.rdQLenPdf::13                      0                       # What read queue length does an incoming req see
system.mem_ctrls.rdQLenPdf::14                      0                       # What read queue length does an incoming req see
system.mem_ctrls.rdQLenPdf::15                      0                       # What read queue length does an incoming req see
system.mem_ctrls.rdQLenPdf::16                      0                       # What read queue length does an incoming req see
system.mem_ctrls.rdQLenPdf::17                      0                       # What read queue length does an incoming req see
system.mem_ctrls.rdQLenPdf::18                      0                       # What read queue length does an incoming req see
system.mem_ctrls.rdQLenPdf::19                      0                       # What read queue length does an incoming req see
system.mem_ctrls.rdQLenPdf::20                      0                       # What read queue length does an incoming req see
system.mem_ctrls.rdQLenPdf::21                      0                       # What read queue length does an incoming req see
system.mem_ctrls.rdQLenPdf::22                      0                       # What read queue length does an incoming req see
system.mem_ctrls.rdQLenPdf::23                      0                       # What read queue length does an incoming req see
system.mem_ctrls.rdQLenPdf::24                      0                       # What read queue length does an incoming req see
system.mem_ctrls.rdQLenPdf::25                      0                       # What read queue length does an incoming req see
system.mem_ctrls.rdQLenPdf::26                      0                       # What read queue length does an incoming req see
system.mem_ctrls.rdQLenPdf::27                      0                       # What read queue length does an incoming req see
system.mem_ctrls.rdQLenPdf::28                      0                       # What read queue length does an incoming req see
system.mem_ctrls.rdQLenPdf::29                      0                       # What read queue length does an incoming req see
system.mem_ctrls.rdQLenPdf::30                      0                       # What read queue length does an incoming req see
system.mem_ctrls.rdQLenPdf::31                      0                       # What read queue length does an incoming req see
system.mem_ctrls.wrQLenPdf::0                       0                       # What write queue length does an incoming req see
system.mem_ctrls.wrQLenPdf::1                       0                       # What write queue length does an incoming req see
system.mem_ctrls.wrQLenPdf::2                       0                       # What write queue length does an incoming req see
system.mem_ctrls.wrQLenPdf::3                       0                       # What write queue length does an incoming req see
system.mem_ctrls.wrQLenPdf::4                       0                       # What write queue length does an incoming req see
system.mem_ctrls.wrQLenPdf::5                       0                       # What write queue length does an incoming req see
system.mem_ctrls.wrQLenPdf::6                       0                       # What write queue length does an incoming req see
system.mem_ctrls.wrQLenPdf::7                       0                       # What write queue length does an incoming req see
system.mem_ctrls.wrQLenPdf::8                       0                       # What write queue length does an incoming req see
system.mem_ctrls.wrQLenPdf::9                       0                       # What write queue length does an incoming req see
system.mem_ctrls.wrQLenPdf::10                      0                       # What write queue length does an incoming req see
system.mem_ctrls.wrQLenPdf::11                      0                       # What write queue length does an incoming req see
system.mem_ctrls.wrQLenPdf::12                      0                       # What write queue length does an incoming req see
system.mem_ctrls.wrQLenPdf::13                      0                       # What write queue length does an incoming req see
system.mem_ctrls.wrQLenPdf::14                      0                       # What write queue length does an incoming req see
system.mem_ctrls.wrQLenPdf::15                      0                       # What write queue length does an incoming req see
system.mem_ctrls.wrQLenPdf::16                      0                       # What write queue length does an incoming req see
system.mem_ctrls.wrQLenPdf::17                      0                       # What write queue length does an incoming req see
system.mem_ctrls.wrQLenPdf::18                      0                       # What write queue length does an incoming req see
system.mem_ctrls.wrQLenPdf::19                      0                       # What write queue length does an incoming req see
system.mem_ctrls.wrQLenPdf::20                      0                       # What write queue length does an incoming req see
system.mem_ctrls.wrQLenPdf::21                      0                       # What write queue length does an incoming req see
system.mem_ctrls.wrQLenPdf::22                      0                       # What write queue length does an incoming req see
system.mem_ctrls.wrQLenPdf::23                      0                       # What write queue length does an incoming req see
system.mem_ctrls.wrQLenPdf::24                      0                       # What write queue length does an incoming req see
system.mem_ctrls.wrQLenPdf::25                      0                       # What write queue length does an incoming req see
system.mem_ctrls.wrQLenPdf::26                      0                       # What write queue length does an incoming req see
system.mem_ctrls.wrQLenPdf::27                      0                       # What write queue length does an incoming req see
system.mem_ctrls.wrQLenPdf::28                      0                       # What write queue length does an incoming req see
system.mem_ctrls.wrQLenPdf::29                      0                       # What write queue length does an incoming req see
system.mem_ctrls.wrQLenPdf::30                      0                       # What write queue length does an incoming req see
system.mem_ctrls.wrQLenPdf::31                      0                       # What write queue length does an incoming req see
system.mem_ctrls.wrQLenPdf::32                      0                       # What write queue length does an incoming req see
system.mem_ctrls.wrQLenPdf::33                      0                       # What write queue length does an incoming req see
system.mem_ctrls.wrQLenPdf::34                      0                       # What write queue length does an incoming req see
system.mem_ctrls.wrQLenPdf::35                      0                       # What write queue length does an incoming req see
system.mem_ctrls.wrQLenPdf::36                      0                       # What write queue length does an incoming req see
system.mem_ctrls.wrQLenPdf::37                      0                       # What write queue length does an incoming req see
system.mem_ctrls.wrQLenPdf::38                      0                       # What write queue length does an incoming req see
system.mem_ctrls.wrQLenPdf::39                      0                       # What write queue length does an incoming req see
system.mem_ctrls.wrQLenPdf::40                      0                       # What write queue length does an incoming req see
system.mem_ctrls.wrQLenPdf::41                      0                       # What write queue length does an incoming req see
system.mem_ctrls.wrQLenPdf::42                      0                       # What write queue length does an incoming req see
system.mem_ctrls.wrQLenPdf::43                      0                       # What write queue length does an incoming req see
system.mem_ctrls.wrQLenPdf::44                      0                       # What write queue length does an incoming req see
system.mem_ctrls.wrQLenPdf::45                      0                       # What write queue length does an incoming req see
system.mem_ctrls.wrQLenPdf::46                      0                       # What write queue length does an incoming req see
system.mem_ctrls.wrQLenPdf::47                      0                       # What write queue length does an incoming req see
system.mem_ctrls.wrQLenPdf::48                      0                       # What write queue length does an incoming req see
system.mem_ctrls.wrQLenPdf::49                      0                       # What write queue length does an incoming req see
system.mem_ctrls.wrQLenPdf::50                      0                       # What write queue length does an incoming req see
system.mem_ctrls.wrQLenPdf::51                      0                       # What write queue length does an incoming req see
system.mem_ctrls.wrQLenPdf::52                      0                       # What write queue length does an incoming req see
system.mem_ctrls.wrQLenPdf::53                      0                       # What write queue length does an incoming req see
system.mem_ctrls.wrQLenPdf::54                      0                       # What write queue length does an incoming req see
system.mem_ctrls.wrQLenPdf::55                      0                       # What write queue length does an incoming req see
system.mem_ctrls.wrQLenPdf::56                      0                       # What write queue length does an incoming req see
system.mem_ctrls.wrQLenPdf::57                      0                       # What write queue length does an incoming req see
system.mem_ctrls.wrQLenPdf::58                      0                       # What write queue length does an incoming req see
system.mem_ctrls.wrQLenPdf::59                      0                       # What write queue length does an incoming req see
system.mem_ctrls.wrQLenPdf::60                      0                       # What write queue length does an incoming req see
system.mem_ctrls.wrQLenPdf::61                      0                       # What write queue length does an incoming req see
system.mem_ctrls.wrQLenPdf::62                      0                       # What write queue length does an incoming req see
system.mem_ctrls.wrQLenPdf::63                      0                       # What write queue length does an incoming req see
system.mem_ctrls.bytesPerActivate::samples          545                       # Bytes accessed per row activation
system.mem_ctrls.bytesPerActivate::mean    370.377982                       # Bytes accessed per row activation
system.mem_ctrls.bytesPerActivate::gmean   208.311883                       # Bytes accessed per row activation
system.mem_ctrls.bytesPerActivate::stdev   379.416866                       # Bytes accessed per row activation
system.mem_ctrls.bytesPerActivate::0-127          188     34.50%     34.50% # Bytes accessed per row activation
system.mem_ctrls.bytesPerActivate::128-255          117     21.47%     55.96% # Bytes accessed per row activation
system.mem_ctrls.bytesPerActivate::256-383           57     10.46%     66.42% # Bytes accessed per row activation
system.mem_ctrls.bytesPerActivate::384-511           32      5.87%     72.29% # Bytes accessed per row activation
system.mem_ctrls.bytesPerActivate::512-639            9      1.65%     73.94% # Bytes accessed per row activation
system.mem_ctrls.bytesPerActivate::640-767           14      2.57%     76.51% # Bytes accessed per row activation
system.mem_ctrls.bytesPerActivate::768-895            6      1.10%     77.61% # Bytes accessed per row activation
system.mem_ctrls.bytesPerActivate::896-1023            8      1.47%     79.08% # Bytes accessed per row activation
system.mem_ctrls.bytesPerActivate::1024-1151          114     20.92%    100.00% # Bytes accessed per row activation
system.mem_ctrls.bytesPerActivate::total          545                       # Bytes accessed per row activation
system.mem_ctrls.totQLat                    133848896                       # Total ticks spent queuing
system.mem_ctrls.totMemAccLat               193605146                       # Total ticks spent from burst creation until serviced by the DRAM
system.mem_ctrls.totBusLat                   15935000                       # Total ticks spent in databus transfers
system.mem_ctrls.avgQLat                     41998.40                       # Average queueing delay per DRAM burst
system.mem_ctrls.avgBusLat                    5000.00                       # Average bus latency per DRAM burst
system.mem_ctrls.avgMemAccLat                60748.40                       # Average memory access latency per DRAM burst
system.mem_ctrls.avgRdBW                         1.56                       # Average DRAM read bandwidth in MiByte/s
system.mem_ctrls.avgWrBW                         0.00                       # Average achieved write bandwidth in MiByte/s
system.mem_ctrls.avgRdBWSys                      1.56                       # Average system read bandwidth in MiByte/s
system.mem_ctrls.avgWrBWSys                      0.00                       # Average system write bandwidth in MiByte/s
system.mem_ctrls.peakBW                      12800.00                       # Theoretical peak bandwidth in MiByte/s
system.mem_ctrls.busUtil                         0.01                       # Data bus utilization in percentage
system.mem_ctrls.busUtilRead                     0.01                       # Data bus utilization in percentage for reads
system.mem_ctrls.busUtilWrite                    0.00                       # Data bus utilization in percentage for writes
system.mem_ctrls.avgRdQLen                       1.05                       # Average read queue length when enqueuing
system.mem_ctrls.avgWrQLen                       0.00                       # Average write queue length when enqueuing
system.mem_ctrls.readRowHits                     2633                       # Number of row buffer hits during reads
system.mem_ctrls.writeRowHits                       0                       # Number of row buffer hits during writes
system.mem_ctrls.readRowHitRate                 82.62                       # Row buffer hit rate for reads
system.mem_ctrls.writeRowHitRate                  nan                       # Row buffer hit rate for writes
system.mem_ctrls.avgGap                   40985024.95                       # Average gap between requests
system.mem_ctrls.pageHitRate                    82.62                       # Row buffer hit rate, read and write combined
system.mem_ctrls_0.actEnergy                  2070600                       # Energy for activate commands per rank (pJ)
system.mem_ctrls_0.preEnergy                  1081575                       # Energy for precharge commands per rank (pJ)
system.mem_ctrls_0.readEnergy                12309360                       # Energy for read commands per rank (pJ)
system.mem_ctrls_0.writeEnergy                      0                       # Energy for write commands per rank (pJ)
system.mem_ctrls_0.refreshEnergy         180704160.000000                       # Energy for refresh commands per rank (pJ)
system.mem_ctrls_0.actBackEnergy             48304080                       # Energy for active background per rank (pJ)
system.mem_ctrls_0.preBackEnergy             11856000                       # Energy for precharge background per rank (pJ)
system.mem_ctrls_0.actPowerDownEnergy       351515010                       # Energy for active power-down per rank (pJ)
system.mem_ctrls_0.prePowerDownEnergy       278239680                       # Energy for precharge power-down per rank (pJ)
system.mem_ctrls_0.selfRefreshEnergy      31007186745                       # Energy for self refresh per rank (pJ)
system.mem_ctrls_0.totalEnergy            31893297570                       # Total energy per rank (pJ)
system.mem_ctrls_0.averagePower            244.169772                       # Core power per rank (mW)
system.mem_ctrls_0.totalIdleTime         130482421035                       # Total Idle time Per DRAM Rank
system.mem_ctrls_0.memoryStateTime::IDLE     24709000                       # Time in different power states
system.mem_ctrls_0.memoryStateTime::REF      76986000                       # Time in different power states
system.mem_ctrls_0.memoryStateTime::SREF 128987023750                       # Time in different power states
system.mem_ctrls_0.memoryStateTime::PRE_PDN    724574486                       # Time in different power states
system.mem_ctrls_0.memoryStateTime::ACT      35190215                       # Time in different power states
system.mem_ctrls_0.memoryStateTime::ACT_PDN    770869049                       # Time in different power states
system.mem_ctrls_1.actEnergy                  1884960                       # Energy for activate commands per rank (pJ)
system.mem_ctrls_1.preEnergy                   986700                       # Energy for precharge commands per rank (pJ)
system.mem_ctrls_1.readEnergy                10445820                       # Energy for read commands per rank (pJ)
system.mem_ctrls_1.writeEnergy                      0                       # Energy for write commands per rank (pJ)
system.mem_ctrls_1.refreshEnergy         167182080.000000                       # Energy for refresh commands per rank (pJ)
system.mem_ctrls_1.actBackEnergy             43476180                       # Energy for active background per rank (pJ)
system.mem_ctrls_1.preBackEnergy             10931040                       # Energy for precharge background per rank (pJ)
system.mem_ctrls_1.actPowerDownEnergy       347357430                       # Energy for active power-down per rank (pJ)
system.mem_ctrls_1.prePowerDownEnergy       243515520                       # Energy for precharge power-down per rank (pJ)
system.mem_ctrls_1.selfRefreshEnergy      31029749520                       # Energy for self refresh per rank (pJ)
system.mem_ctrls_1.totalEnergy            31855529250                       # Total energy per rank (pJ)
system.mem_ctrls_1.averagePower            243.880624                       # Core power per rank (mW)
system.mem_ctrls_1.totalIdleTime         130495348297                       # Total Idle time Per DRAM Rank
system.mem_ctrls_1.memoryStateTime::IDLE     22638500                       # Time in different power states
system.mem_ctrls_1.memoryStateTime::REF      71218000                       # Time in different power states
system.mem_ctrls_1.memoryStateTime::SREF 129099634250                       # Time in different power states
system.mem_ctrls_1.memoryStateTime::PRE_PDN    634149750                       # Time in different power states
system.mem_ctrls_1.memoryStateTime::ACT      29956953                       # Time in different power states
system.mem_ctrls_1.memoryStateTime::ACT_PDN    761755047                       # Time in different power states
system.pwrStateResidencyTicks::UNDEFINED 130619352500                       # Cumulative time (in ticks) in various power states
system.cpu.branchPred.lookups                65556713                       # Number of BP lookups
system.cpu.branchPred.condPredicted          54504452                       # Number of conditional branches predicted
system.cpu.branchPred.condIncorrect           5023860                       # Number of conditional branches incorrect
system.cpu.branchPred.BTBLookups             43938009                       # Number of BTB lookups
system.cpu.branchPred.BTBHits                40255232                       # Number of BTB hits
system.cpu.branchPred.BTBCorrect                    0                       # Number of correct BTB predictions (this stat may not work properly.
system.cpu.branchPred.BTBHitPct             91.618243                       # BTB Hit Percentage
system.cpu.branchPred.usedRAS                 4876802                       # Number of times the RAS was used to get a target.
system.cpu.branchPred.RASInCorrect             246006                       # Number of incorrect RAS predictions.
system.cpu.branchPred.indirectLookups          252417                       # Number of indirect predictor lookups.
system.cpu.branchPred.indirectHits             211091                       # Number of indirect target hits.
system.cpu.branchPred.indirectMisses            41326                       # Number of indirect misses.
system.cpu.branchPredindirectMispredicted          581                       # Number of mispredicted indirect branches.
system.cpu_voltage_domain.voltage                   1                       # Voltage in Volts
system.cpu_clk_domain.clock                       500                       # Clock period in ticks
system.cpu.dstage2_mmu.stage2_tlb.walker.pwrStateResidencyTicks::UNDEFINED 130619352500                       # Cumulative time (in ticks) in various power states
system.cpu.dstage2_mmu.stage2_tlb.walker.walks            0                       # Table walker walks requested
system.cpu.dstage2_mmu.stage2_tlb.walker.walkRequestOrigin_Requested::Data            0                       # Table walker requests started/completed, data/inst
system.cpu.dstage2_mmu.stage2_tlb.walker.walkRequestOrigin_Requested::Inst            0                       # Table walker requests started/completed, data/inst
system.cpu.dstage2_mmu.stage2_tlb.walker.walkRequestOrigin_Requested::total            0                       # Table walker requests started/completed, data/inst
system.cpu.dstage2_mmu.stage2_tlb.walker.walkRequestOrigin_Completed::Data            0                       # Table walker requests started/completed, data/inst
system.cpu.dstage2_mmu.stage2_tlb.walker.walkRequestOrigin_Completed::Inst            0                       # Table walker requests started/completed, data/inst
system.cpu.dstage2_mmu.stage2_tlb.walker.walkRequestOrigin_Completed::total            0                       # Table walker requests started/completed, data/inst
system.cpu.dstage2_mmu.stage2_tlb.walker.walkRequestOrigin::total            0                       # Table walker requests started/completed, data/inst
system.cpu.dstage2_mmu.stage2_tlb.inst_hits            0                       # ITB inst hits
system.cpu.dstage2_mmu.stage2_tlb.inst_misses            0                       # ITB inst misses
system.cpu.dstage2_mmu.stage2_tlb.read_hits            0                       # DTB read hits
system.cpu.dstage2_mmu.stage2_tlb.read_misses            0                       # DTB read misses
system.cpu.dstage2_mmu.stage2_tlb.write_hits            0                       # DTB write hits
system.cpu.dstage2_mmu.stage2_tlb.write_misses            0                       # DTB write misses
system.cpu.dstage2_mmu.stage2_tlb.flush_tlb            0                       # Number of times complete TLB was flushed
system.cpu.dstage2_mmu.stage2_tlb.flush_tlb_mva            0                       # Number of times TLB was flushed by MVA
system.cpu.dstage2_mmu.stage2_tlb.flush_tlb_mva_asid            0                       # Number of times TLB was flushed by MVA & ASID
system.cpu.dstage2_mmu.stage2_tlb.flush_tlb_asid            0                       # Number of times TLB was flushed by ASID
system.cpu.dstage2_mmu.stage2_tlb.flush_entries            0                       # Number of entries that have been flushed from TLB
system.cpu.dstage2_mmu.stage2_tlb.align_faults            0                       # Number of TLB faults due to alignment restrictions
system.cpu.dstage2_mmu.stage2_tlb.prefetch_faults            0                       # Number of TLB faults due to prefetch
system.cpu.dstage2_mmu.stage2_tlb.domain_faults            0                       # Number of TLB faults due to domain restrictions
system.cpu.dstage2_mmu.stage2_tlb.perms_faults            0                       # Number of TLB faults due to permissions restrictions
system.cpu.dstage2_mmu.stage2_tlb.read_accesses            0                       # DTB read accesses
system.cpu.dstage2_mmu.stage2_tlb.write_accesses            0                       # DTB write accesses
system.cpu.dstage2_mmu.stage2_tlb.inst_accesses            0                       # ITB inst accesses
system.cpu.dstage2_mmu.stage2_tlb.hits              0                       # DTB hits
system.cpu.dstage2_mmu.stage2_tlb.misses            0                       # DTB misses
system.cpu.dstage2_mmu.stage2_tlb.accesses            0                       # DTB accesses
system.cpu.dtb.walker.pwrStateResidencyTicks::UNDEFINED 130619352500                       # Cumulative time (in ticks) in various power states
system.cpu.dtb.walker.walks                         0                       # Table walker walks requested
system.cpu.dtb.walker.walkRequestOrigin_Requested::Data            0                       # Table walker requests started/completed, data/inst
system.cpu.dtb.walker.walkRequestOrigin_Requested::Inst            0                       # Table walker requests started/completed, data/inst
system.cpu.dtb.walker.walkRequestOrigin_Requested::total            0                       # Table walker requests started/completed, data/inst
system.cpu.dtb.walker.walkRequestOrigin_Completed::Data            0                       # Table walker requests started/completed, data/inst
system.cpu.dtb.walker.walkRequestOrigin_Completed::Inst            0                       # Table walker requests started/completed, data/inst
system.cpu.dtb.walker.walkRequestOrigin_Completed::total            0                       # Table walker requests started/completed, data/inst
system.cpu.dtb.walker.walkRequestOrigin::total            0                       # Table walker requests started/completed, data/inst
system.cpu.dtb.inst_hits                            0                       # ITB inst hits
system.cpu.dtb.inst_misses                          0                       # ITB inst misses
system.cpu.dtb.read_hits                            0                       # DTB read hits
system.cpu.dtb.read_misses                          0                       # DTB read misses
system.cpu.dtb.write_hits                           0                       # DTB write hits
system.cpu.dtb.write_misses                         0                       # DTB write misses
system.cpu.dtb.flush_tlb                            0                       # Number of times complete TLB was flushed
system.cpu.dtb.flush_tlb_mva                        0                       # Number of times TLB was flushed by MVA
system.cpu.dtb.flush_tlb_mva_asid                   0                       # Number of times TLB was flushed by MVA & ASID
system.cpu.dtb.flush_tlb_asid                       0                       # Number of times TLB was flushed by ASID
system.cpu.dtb.flush_entries                        0                       # Number of entries that have been flushed from TLB
system.cpu.dtb.align_faults                         0                       # Number of TLB faults due to alignment restrictions
system.cpu.dtb.prefetch_faults                      0                       # Number of TLB faults due to prefetch
system.cpu.dtb.domain_faults                        0                       # Number of TLB faults due to domain restrictions
system.cpu.dtb.perms_faults                         0                       # Number of TLB faults due to permissions restrictions
system.cpu.dtb.read_accesses                        0                       # DTB read accesses
system.cpu.dtb.write_accesses                       0                       # DTB write accesses
system.cpu.dtb.inst_accesses                        0                       # ITB inst accesses
system.cpu.dtb.hits                                 0                       # DTB hits
system.cpu.dtb.misses                               0                       # DTB misses
system.cpu.dtb.accesses                             0                       # DTB accesses
system.cpu.istage2_mmu.stage2_tlb.walker.pwrStateResidencyTicks::UNDEFINED 130619352500                       # Cumulative time (in ticks) in various power states
system.cpu.istage2_mmu.stage2_tlb.walker.walks            0                       # Table walker walks requested
system.cpu.istage2_mmu.stage2_tlb.walker.walkRequestOrigin_Requested::Data            0                       # Table walker requests started/completed, data/inst
system.cpu.istage2_mmu.stage2_tlb.walker.walkRequestOrigin_Requested::Inst            0                       # Table walker requests started/completed, data/inst
system.cpu.istage2_mmu.stage2_tlb.walker.walkRequestOrigin_Requested::total            0                       # Table walker requests started/completed, data/inst
system.cpu.istage2_mmu.stage2_tlb.walker.walkRequestOrigin_Completed::Data            0                       # Table walker requests started/completed, data/inst
system.cpu.istage2_mmu.stage2_tlb.walker.walkRequestOrigin_Completed::Inst            0                       # Table walker requests started/completed, data/inst
system.cpu.istage2_mmu.stage2_tlb.walker.walkRequestOrigin_Completed::total            0                       # Table walker requests started/completed, data/inst
system.cpu.istage2_mmu.stage2_tlb.walker.walkRequestOrigin::total            0                       # Table walker requests started/completed, data/inst
system.cpu.istage2_mmu.stage2_tlb.inst_hits            0                       # ITB inst hits
system.cpu.istage2_mmu.stage2_tlb.inst_misses            0                       # ITB inst misses
system.cpu.istage2_mmu.stage2_tlb.read_hits            0                       # DTB read hits
system.cpu.istage2_mmu.stage2_tlb.read_misses            0                       # DTB read misses
system.cpu.istage2_mmu.stage2_tlb.write_hits            0                       # DTB write hits
system.cpu.istage2_mmu.stage2_tlb.write_misses            0                       # DTB write misses
system.cpu.istage2_mmu.stage2_tlb.flush_tlb            0                       # Number of times complete TLB was flushed
system.cpu.istage2_mmu.stage2_tlb.flush_tlb_mva            0                       # Number of times TLB was flushed by MVA
system.cpu.istage2_mmu.stage2_tlb.flush_tlb_mva_asid            0                       # Number of times TLB was flushed by MVA & ASID
system.cpu.istage2_mmu.stage2_tlb.flush_tlb_asid            0                       # Number of times TLB was flushed by ASID
system.cpu.istage2_mmu.stage2_tlb.flush_entries            0                       # Number of entries that have been flushed from TLB
system.cpu.istage2_mmu.stage2_tlb.align_faults            0                       # Number of TLB faults due to alignment restrictions
system.cpu.istage2_mmu.stage2_tlb.prefetch_faults            0                       # Number of TLB faults due to prefetch
system.cpu.istage2_mmu.stage2_tlb.domain_faults            0                       # Number of TLB faults due to domain restrictions
system.cpu.istage2_mmu.stage2_tlb.perms_faults            0                       # Number of TLB faults due to permissions restrictions
system.cpu.istage2_mmu.stage2_tlb.read_accesses            0                       # DTB read accesses
system.cpu.istage2_mmu.stage2_tlb.write_accesses            0                       # DTB write accesses
system.cpu.istage2_mmu.stage2_tlb.inst_accesses            0                       # ITB inst accesses
system.cpu.istage2_mmu.stage2_tlb.hits              0                       # DTB hits
system.cpu.istage2_mmu.stage2_tlb.misses            0                       # DTB misses
system.cpu.istage2_mmu.stage2_tlb.accesses            0                       # DTB accesses
system.cpu.itb.walker.pwrStateResidencyTicks::UNDEFINED 130619352500                       # Cumulative time (in ticks) in various power states
system.cpu.itb.walker.walks                         0                       # Table walker walks requested
system.cpu.itb.walker.walkRequestOrigin_Requested::Data            0                       # Table walker requests started/completed, data/inst
system.cpu.itb.walker.walkRequestOrigin_Requested::Inst            0                       # Table walker requests started/completed, data/inst
system.cpu.itb.walker.walkRequestOrigin_Requested::total            0                       # Table walker requests started/completed, data/inst
system.cpu.itb.walker.walkRequestOrigin_Completed::Data            0                       # Table walker requests started/completed, data/inst
system.cpu.itb.walker.walkRequestOrigin_Completed::Inst            0                       # Table walker requests started/completed, data/inst
system.cpu.itb.walker.walkRequestOrigin_Completed::total            0                       # Table walker requests started/completed, data/inst
system.cpu.itb.walker.walkRequestOrigin::total            0                       # Table walker requests started/completed, data/inst
system.cpu.itb.inst_hits                            0                       # ITB inst hits
system.cpu.itb.inst_misses                          0                       # ITB inst misses
system.cpu.itb.read_hits                            0                       # DTB read hits
system.cpu.itb.read_misses                          0                       # DTB read misses
system.cpu.itb.write_hits                           0                       # DTB write hits
system.cpu.itb.write_misses                         0                       # DTB write misses
system.cpu.itb.flush_tlb                            0                       # Number of times complete TLB was flushed
system.cpu.itb.flush_tlb_mva                        0                       # Number of times TLB was flushed by MVA
system.cpu.itb.flush_tlb_mva_asid                   0                       # Number of times TLB was flushed by MVA & ASID
system.cpu.itb.flush_tlb_asid                       0                       # Number of times TLB was flushed by ASID
system.cpu.itb.flush_entries                        0                       # Number of entries that have been flushed from TLB
system.cpu.itb.align_faults                         0                       # Number of TLB faults due to alignment restrictions
system.cpu.itb.prefetch_faults                      0                       # Number of TLB faults due to prefetch
system.cpu.itb.domain_faults                        0                       # Number of TLB faults due to domain restrictions
system.cpu.itb.perms_faults                         0                       # Number of TLB faults due to permissions restrictions
system.cpu.itb.read_accesses                        0                       # DTB read accesses
system.cpu.itb.write_accesses                       0                       # DTB write accesses
system.cpu.itb.inst_accesses                        0                       # ITB inst accesses
system.cpu.itb.hits                                 0                       # DTB hits
system.cpu.itb.misses                               0                       # DTB misses
system.cpu.itb.accesses                             0                       # DTB accesses
system.cpu.workload.numSyscalls                    16                       # Number of system calls
system.cpu.pwrStateResidencyTicks::ON    130619352500                       # Cumulative time (in ticks) in various power states
system.cpu.numCycles                        261238706                       # number of cpu cycles simulated
system.cpu.numWorkItemsStarted                      0                       # number of work items this cpu started
system.cpu.numWorkItemsCompleted                    0                       # number of work items this cpu completed
system.cpu.fetch.icacheStallCycles            4952820                       # Number of cycles fetch is stalled on an Icache miss
system.cpu.fetch.Insts                      512838403                       # Number of instructions fetch has processed
system.cpu.fetch.Branches                    65556713                       # Number of branches that fetch encountered
system.cpu.fetch.predictedBranches           45343125                       # Number of branches that fetch has predicted taken
system.cpu.fetch.Cycles                     251107257                       # Number of cycles fetch has run and was not squashing or blocked
system.cpu.fetch.SquashCycles                10111312                       # Number of cycles fetch has spent squashing
system.cpu.fetch.MiscStallCycles                  754                       # Number of cycles fetch has spent waiting on interrupts, or bad addresses, or out of MSHRs
system.cpu.fetch.PendingTrapStallCycles           336                       # Number of stall cycles due to pending traps
system.cpu.fetch.IcacheWaitRetryStallCycles         1673                       # Number of stall cycles due to full MSHR
system.cpu.fetch.CacheLines                 154769861                       # Number of cache lines fetched
system.cpu.fetch.IcacheSquashes                  1549                       # Number of outstanding Icache misses that were squashed
system.cpu.fetch.rateDist::samples          261118496                       # Number of instructions fetched each cycle (Total)
system.cpu.fetch.rateDist::mean              2.082994                       # Number of instructions fetched each cycle (Total)
system.cpu.fetch.rateDist::stdev             1.046757                       # Number of instructions fetched each cycle (Total)
system.cpu.fetch.rateDist::underflows               0      0.00%      0.00% # Number of instructions fetched each cycle (Total)
system.cpu.fetch.rateDist::0                 12653280      4.85%      4.85% # Number of instructions fetched each cycle (Total)
system.cpu.fetch.rateDist::1                 95157672     36.44%     41.29% # Number of instructions fetched each cycle (Total)
system.cpu.fetch.rateDist::2                 11172034      4.28%     45.57% # Number of instructions fetched each cycle (Total)
system.cpu.fetch.rateDist::3                142135510     54.43%    100.00% # Number of instructions fetched each cycle (Total)
system.cpu.fetch.rateDist::overflows                0      0.00%    100.00% # Number of instructions fetched each cycle (Total)
system.cpu.fetch.rateDist::min_value                0                       # Number of instructions fetched each cycle (Total)
system.cpu.fetch.rateDist::max_value                3                       # Number of instructions fetched each cycle (Total)
system.cpu.fetch.rateDist::total            261118496                       # Number of instructions fetched each cycle (Total)
system.cpu.fetch.branchRate                  0.250946                       # Number of branch fetches per cycle
system.cpu.fetch.rate                        1.963103                       # Number of inst fetches per cycle
system.cpu.decode.IdleCycles                 12335558                       # Number of cycles decode is idle
system.cpu.decode.BlockedCycles               8925186                       # Number of cycles decode is blocked
system.cpu.decode.RunCycles                 231771398                       # Number of cycles decode is running
system.cpu.decode.UnblockCycles               3121063                       # Number of cycles decode is unblocking
system.cpu.decode.SquashCycles                4965291                       # Number of cycles decode is squashing
system.cpu.decode.BranchResolved             38792311                       # Number of times decode resolved a branch
system.cpu.decode.BranchMispred                 93430                       # Number of times decode detected a branch misprediction
system.cpu.decode.DecodedInsts              507877147                       # Number of instructions handled by decode
system.cpu.decode.SquashedInsts              20171744                       # Number of squashed instructions handled by decode
system.cpu.rename.SquashCycles                4965291                       # Number of cycles rename is squashing
system.cpu.rename.IdleCycles                 28659127                       # Number of cycles rename is idle
system.cpu.rename.BlockCycles                 3806198                       # Number of cycles rename is blocking
system.cpu.rename.serializeStallCycles        2307248                       # count of cycles rename stalled for serializing inst
system.cpu.rename.RunCycles                 218562395                       # Number of cycles rename is running
system.cpu.rename.UnblockCycles               2818237                       # Number of cycles rename is unblocking
system.cpu.rename.RenamedInsts              487147572                       # Number of instructions processed by rename
system.cpu.rename.SquashedInsts              10430912                       # Number of squashed instructions processed by rename
system.cpu.rename.ROBFullEvents                238813                       # Number of times rename has blocked due to ROB full
system.cpu.rename.IQFullEvents                1091688                       # Number of times rename has blocked due to IQ full
system.cpu.rename.LQFullEvents                   1078                       # Number of times rename has blocked due to LQ full
system.cpu.rename.SQFullEvents                  40798                       # Number of times rename has blocked due to SQ full
system.cpu.rename.RenamedOperands           679297015                       # Number of destination operands rename has renamed
system.cpu.rename.RenameLookups            2419958696                       # Number of register rename lookups that rename has made
system.cpu.rename.int_rename_lookups        801598151                       # Number of integer rename lookups
system.cpu.rename.fp_rename_lookups                16                       # Number of floating rename lookups
system.cpu.rename.CommittedMaps             576946516                       # Number of HB maps that are committed
system.cpu.rename.UndoneMaps                102350499                       # Number of HB maps that are undone due to squashing
system.cpu.rename.serializingInsts             190477                       # count of serializing insts renamed
system.cpu.rename.tempSerializingInsts          66710                       # count of temporary serializing insts renamed
system.cpu.rename.skidInsts                   5067221                       # count of insts added to the skid buffer
system.cpu.memDep0.insertedLoads             42165563                       # Number of loads inserted to the mem dependence unit.
system.cpu.memDep0.insertedStores            40198727                       # Number of stores inserted to the mem dependence unit.
system.cpu.memDep0.conflictingLoads            530274                       # Number of conflicting loads.
system.cpu.memDep0.conflictingStores           427929                       # Number of conflicting stores.
system.cpu.iq.iqInstsAdded                  476283819                       # Number of instructions added to the IQ (excludes non-spec)
system.cpu.iq.iqNonSpecInstsAdded               67294                       # Number of non-speculative instructions added to the IQ
system.cpu.iq.iqInstsIssued                 444637229                       # Number of instructions issued
system.cpu.iq.iqSquashedInstsIssued           4832080                       # Number of squashed instructions issued
system.cpu.iq.iqSquashedInstsExamined        57291818                       # Number of squashed instructions iterated over during squash; mainly for profiling
system.cpu.iq.iqSquashedOperandsExamined    167119330                       # Number of squashed operands that are examined and possibly removed from graph
system.cpu.iq.iqSquashedNonSpecRemoved          35186                       # Number of squashed non-spec instructions that were removed
system.cpu.iq.issued_per_cycle::samples     261118496                       # Number of insts issued each cycle
system.cpu.iq.issued_per_cycle::mean         1.702818                       # Number of insts issued each cycle
system.cpu.iq.issued_per_cycle::stdev        0.980530                       # Number of insts issued each cycle
system.cpu.iq.issued_per_cycle::underflows            0      0.00%      0.00% # Number of insts issued each cycle
system.cpu.iq.issued_per_cycle::0            46342194     17.75%     17.75% # Number of insts issued each cycle
system.cpu.iq.issued_per_cycle::1            36281989     13.89%     31.64% # Number of insts issued each cycle
system.cpu.iq.issued_per_cycle::2           127674484     48.90%     80.54% # Number of insts issued each cycle
system.cpu.iq.issued_per_cycle::3            50273044     19.25%     99.79% # Number of insts issued each cycle
system.cpu.iq.issued_per_cycle::4              546785      0.21%    100.00% # Number of insts issued each cycle
system.cpu.iq.issued_per_cycle::5                   0      0.00%    100.00% # Number of insts issued each cycle
system.cpu.iq.issued_per_cycle::6                   0      0.00%    100.00% # Number of insts issued each cycle
system.cpu.iq.issued_per_cycle::7                   0      0.00%    100.00% # Number of insts issued each cycle
system.cpu.iq.issued_per_cycle::8                   0      0.00%    100.00% # Number of insts issued each cycle
system.cpu.iq.issued_per_cycle::overflows            0      0.00%    100.00% # Number of insts issued each cycle
system.cpu.iq.issued_per_cycle::min_value            0                       # Number of insts issued each cycle
system.cpu.iq.issued_per_cycle::max_value            4                       # Number of insts issued each cycle
system.cpu.iq.issued_per_cycle::total       261118496                       # Number of insts issued each cycle
system.cpu.iq.fu_full::No_OpClass                   0      0.00%      0.00% # attempts to use FU when none available
system.cpu.iq.fu_full::IntAlu                66895932     84.01%     84.01% # attempts to use FU when none available
system.cpu.iq.fu_full::IntMult                     21      0.00%     84.01% # attempts to use FU when none available
system.cpu.iq.fu_full::IntDiv                       0      0.00%     84.01% # attempts to use FU when none available
system.cpu.iq.fu_full::FloatAdd                     0      0.00%     84.01% # attempts to use FU when none available
system.cpu.iq.fu_full::FloatCmp                     0      0.00%     84.01% # attempts to use FU when none available
system.cpu.iq.fu_full::FloatCvt                     0      0.00%     84.01% # attempts to use FU when none available
system.cpu.iq.fu_full::FloatMult                    0      0.00%     84.01% # attempts to use FU when none available
system.cpu.iq.fu_full::FloatMultAcc                 0      0.00%     84.01% # attempts to use FU when none available
system.cpu.iq.fu_full::FloatDiv                     0      0.00%     84.01% # attempts to use FU when none available
system.cpu.iq.fu_full::FloatMisc                    0      0.00%     84.01% # attempts to use FU when none available
system.cpu.iq.fu_full::FloatSqrt                    0      0.00%     84.01% # attempts to use FU when none available
system.cpu.iq.fu_full::SimdAdd                      0      0.00%     84.01% # attempts to use FU when none available
system.cpu.iq.fu_full::SimdAddAcc                   0      0.00%     84.01% # attempts to use FU when none available
system.cpu.iq.fu_full::SimdAlu                      0      0.00%     84.01% # attempts to use FU when none available
system.cpu.iq.fu_full::SimdCmp                      0      0.00%     84.01% # attempts to use FU when none available
system.cpu.iq.fu_full::SimdCvt                      0      0.00%     84.01% # attempts to use FU when none available
system.cpu.iq.fu_full::SimdMisc                     0      0.00%     84.01% # attempts to use FU when none available
system.cpu.iq.fu_full::SimdMult                     0      0.00%     84.01% # attempts to use FU when none available
system.cpu.iq.fu_full::SimdMultAcc                  0      0.00%     84.01% # attempts to use FU when none available
system.cpu.iq.fu_full::SimdShift                    0      0.00%     84.01% # attempts to use FU when none available
system.cpu.iq.fu_full::SimdShiftAcc                 0      0.00%     84.01% # attempts to use FU when none available
system.cpu.iq.fu_full::SimdSqrt                     0      0.00%     84.01% # attempts to use FU when none available
system.cpu.iq.fu_full::SimdFloatAdd                 0      0.00%     84.01% # attempts to use FU when none available
system.cpu.iq.fu_full::SimdFloatAlu                 0      0.00%     84.01% # attempts to use FU when none available
system.cpu.iq.fu_full::SimdFloatCmp                 0      0.00%     84.01% # attempts to use FU when none available
system.cpu.iq.fu_full::SimdFloatCvt                 0      0.00%     84.01% # attempts to use FU when none available
system.cpu.iq.fu_full::SimdFloatDiv                 0      0.00%     84.01% # attempts to use FU when none available
system.cpu.iq.fu_full::SimdFloatMisc                0      0.00%     84.01% # attempts to use FU when none available
system.cpu.iq.fu_full::SimdFloatMult                0      0.00%     84.01% # attempts to use FU when none available
system.cpu.iq.fu_full::SimdFloatMultAcc             0      0.00%     84.01% # attempts to use FU when none available
system.cpu.iq.fu_full::SimdFloatSqrt                0      0.00%     84.01% # attempts to use FU when none available
system.cpu.iq.fu_full::MemRead                5784088      7.26%     91.27% # attempts to use FU when none available
system.cpu.iq.fu_full::MemWrite               6951815      8.73%    100.00% # attempts to use FU when none available
system.cpu.iq.fu_full::FloatMemRead                 0      0.00%    100.00% # attempts to use FU when none available
system.cpu.iq.fu_full::FloatMemWrite               14      0.00%    100.00% # attempts to use FU when none available
system.cpu.iq.fu_full::IprAccess                    0      0.00%    100.00% # attempts to use FU when none available
system.cpu.iq.fu_full::InstPrefetch                 0      0.00%    100.00% # attempts to use FU when none available
system.cpu.iq.FU_type_0::No_OpClass                 0      0.00%      0.00% # Type of FU issued
system.cpu.iq.FU_type_0::IntAlu             363162114     81.68%     81.68% # Type of FU issued
system.cpu.iq.FU_type_0::IntMult              1737383      0.39%     82.07% # Type of FU issued
system.cpu.iq.FU_type_0::IntDiv                     0      0.00%     82.07% # Type of FU issued
system.cpu.iq.FU_type_0::FloatAdd                   0      0.00%     82.07% # Type of FU issued
system.cpu.iq.FU_type_0::FloatCmp                   0      0.00%     82.07% # Type of FU issued
system.cpu.iq.FU_type_0::FloatCvt                   0      0.00%     82.07% # Type of FU issued
system.cpu.iq.FU_type_0::FloatMult                  0      0.00%     82.07% # Type of FU issued
system.cpu.iq.FU_type_0::FloatMultAcc               0      0.00%     82.07% # Type of FU issued
system.cpu.iq.FU_type_0::FloatDiv                   0      0.00%     82.07% # Type of FU issued
system.cpu.iq.FU_type_0::FloatMisc                  0      0.00%     82.07% # Type of FU issued
system.cpu.iq.FU_type_0::FloatSqrt                  0      0.00%     82.07% # Type of FU issued
system.cpu.iq.FU_type_0::SimdAdd                    0      0.00%     82.07% # Type of FU issued
system.cpu.iq.FU_type_0::SimdAddAcc                 0      0.00%     82.07% # Type of FU issued
system.cpu.iq.FU_type_0::SimdAlu                    0      0.00%     82.07% # Type of FU issued
system.cpu.iq.FU_type_0::SimdCmp                    0      0.00%     82.07% # Type of FU issued
system.cpu.iq.FU_type_0::SimdCvt                    0      0.00%     82.07% # Type of FU issued
system.cpu.iq.FU_type_0::SimdMisc                   0      0.00%     82.07% # Type of FU issued
system.cpu.iq.FU_type_0::SimdMult                   0      0.00%     82.07% # Type of FU issued
system.cpu.iq.FU_type_0::SimdMultAcc                0      0.00%     82.07% # Type of FU issued
system.cpu.iq.FU_type_0::SimdShift                  0      0.00%     82.07% # Type of FU issued
system.cpu.iq.FU_type_0::SimdShiftAcc               0      0.00%     82.07% # Type of FU issued
system.cpu.iq.FU_type_0::SimdSqrt                   0      0.00%     82.07% # Type of FU issued
system.cpu.iq.FU_type_0::SimdFloatAdd               0      0.00%     82.07% # Type of FU issued
system.cpu.iq.FU_type_0::SimdFloatAlu               0      0.00%     82.07% # Type of FU issued
system.cpu.iq.FU_type_0::SimdFloatCmp               0      0.00%     82.07% # Type of FU issued
system.cpu.iq.FU_type_0::SimdFloatCvt               0      0.00%     82.07% # Type of FU issued
system.cpu.iq.FU_type_0::SimdFloatDiv               0      0.00%     82.07% # Type of FU issued
system.cpu.iq.FU_type_0::SimdFloatMisc         154681      0.03%     82.10% # Type of FU issued
system.cpu.iq.FU_type_0::SimdFloatMult              0      0.00%     82.10% # Type of FU issued
system.cpu.iq.FU_type_0::SimdFloatMultAcc            0      0.00%     82.10% # Type of FU issued
system.cpu.iq.FU_type_0::SimdFloatSqrt              0      0.00%     82.10% # Type of FU issued
system.cpu.iq.FU_type_0::MemRead             40646233      9.14%     91.24% # Type of FU issued
system.cpu.iq.FU_type_0::MemWrite            38936802      8.76%    100.00% # Type of FU issued
system.cpu.iq.FU_type_0::FloatMemRead               0      0.00%    100.00% # Type of FU issued
system.cpu.iq.FU_type_0::FloatMemWrite             16      0.00%    100.00% # Type of FU issued
system.cpu.iq.FU_type_0::IprAccess                  0      0.00%    100.00% # Type of FU issued
system.cpu.iq.FU_type_0::InstPrefetch               0      0.00%    100.00% # Type of FU issued
system.cpu.iq.FU_type_0::total              444637229                       # Type of FU issued
system.cpu.iq.rate                           1.702034                       # Inst issue rate
system.cpu.iq.fu_busy_cnt                    79631870                       # FU busy when requested
system.cpu.iq.fu_busy_rate                   0.179094                       # FU busy rate (busy events/executed inst)
system.cpu.iq.int_inst_queue_reads         1234856858                       # Number of integer instruction queue reads
system.cpu.iq.int_inst_queue_writes         533643837                       # Number of integer instruction queue writes
system.cpu.iq.int_inst_queue_wakeup_accesses    436074517                       # Number of integer instruction queue wakeup accesses
system.cpu.iq.fp_inst_queue_reads                  46                       # Number of floating instruction queue reads
system.cpu.iq.fp_inst_queue_writes                 16                       # Number of floating instruction queue writes
system.cpu.iq.fp_inst_queue_wakeup_accesses           16                       # Number of floating instruction queue wakeup accesses
system.cpu.iq.int_alu_accesses              524269069                       # Number of integer alu accesses
system.cpu.iq.fp_alu_accesses                      30                       # Number of floating point alu accesses
system.cpu.iew.lsq.thread0.forwLoads           339693                       # Number of loads that had data forwarded from stores
system.cpu.iew.lsq.thread0.invAddrLoads             0                       # Number of loads ignored due to an invalid address
system.cpu.iew.lsq.thread0.squashedLoads      4976901                       # Number of loads squashed
system.cpu.iew.lsq.thread0.ignoredResponses         3610                       # Number of memory responses ignored because the instruction is squashed
system.cpu.iew.lsq.thread0.memOrderViolation          924                       # Number of memory ordering violations
system.cpu.iew.lsq.thread0.squashedStores      2496593                       # Number of stores squashed
system.cpu.iew.lsq.thread0.invAddrSwpfs             0                       # Number of software prefetches ignored due to an invalid address
system.cpu.iew.lsq.thread0.blockedLoads             0                       # Number of blocked loads due to partial load-store forwarding
system.cpu.iew.lsq.thread0.rescheduledLoads        81149                       # Number of loads that were rescheduled
system.cpu.iew.lsq.thread0.cacheBlocked          2062                       # Number of times an access to memory failed due to the cache being blocked
system.cpu.iew.iewIdleCycles                        0                       # Number of cycles IEW is idle
system.cpu.iew.iewSquashCycles                4965291                       # Number of cycles IEW is squashing
system.cpu.iew.iewBlockCycles                 3614260                       # Number of cycles IEW is blocking
system.cpu.iew.iewUnblockCycles                   461                       # Number of cycles IEW is unblocking
system.cpu.iew.iewDispatchedInsts           476351137                       # Number of instructions dispatched to IQ
system.cpu.iew.iewDispSquashedInsts                 0                       # Number of squashed instructions skipped by dispatch
system.cpu.iew.iewDispLoadInsts              42165563                       # Number of dispatched load instructions
system.cpu.iew.iewDispStoreInsts             40198727                       # Number of dispatched store instructions
system.cpu.iew.iewDispNonSpecInsts              66710                       # Number of dispatched non-speculative instructions
system.cpu.iew.iewIQFullEvents                    421                       # Number of times the IQ has become full, causing a stall
system.cpu.iew.iewLSQFullEvents                    31                       # Number of times the LSQ has become full, causing a stall
system.cpu.iew.memOrderViolationEvents            924                       # Number of memory order violations
system.cpu.iew.predictedTakenIncorrect        1686711                       # Number of branches that were predicted taken incorrectly
system.cpu.iew.predictedNotTakenIncorrect      3620427                       # Number of branches that were predicted not taken incorrectly
system.cpu.iew.branchMispredicts              5307138                       # Number of branch mispredicts detected at execute
system.cpu.iew.iewExecutedInsts             437249101                       # Number of executed instructions
system.cpu.iew.iewExecLoadInsts              39200288                       # Number of load instructions executed
system.cpu.iew.iewExecSquashedInsts           7388128                       # Number of squashed instructions skipped in execute
system.cpu.iew.exec_swp                             0                       # number of swp insts executed
system.cpu.iew.exec_nop                            24                       # number of nop insts executed
system.cpu.iew.exec_refs                     77686011                       # number of memory reference insts executed
system.cpu.iew.exec_branches                 51013872                       # Number of branches executed
system.cpu.iew.exec_stores                   38485723                       # Number of stores executed
system.cpu.iew.exec_rate                     1.673753                       # Inst execution rate
system.cpu.iew.wb_sent                      436141067                       # cumulative count of insts sent to commit
system.cpu.iew.wb_count                     436074533                       # cumulative count of insts written-back
system.cpu.iew.wb_producers                 317654145                       # num instructions producing a value
system.cpu.iew.wb_consumers                 766137921                       # num instructions consuming a value
system.cpu.iew.wb_rate                       1.669257                       # insts written-back per cycle
system.cpu.iew.wb_fanout                     0.414617                       # average fanout of values written-back
system.cpu.commit.commitSquashedInsts        47415421                       # The number of squashed insts skipped by commit
system.cpu.commit.commitNonSpecStalls           32108                       # The number of times commit has been forced to stall to communicate backwards
system.cpu.commit.branchMispredicts           4933495                       # The number of times a branch was mispredicted
system.cpu.commit.committed_per_cycle::samples    252541179                       # Number of insts commited each cycle
system.cpu.commit.committed_per_cycle::mean     1.659370                       # Number of insts commited each cycle
system.cpu.commit.committed_per_cycle::stdev     1.964516                       # Number of insts commited each cycle
system.cpu.commit.committed_per_cycle::underflows            0      0.00%      0.00% # Number of insts commited each cycle
system.cpu.commit.committed_per_cycle::0     82697588     32.75%     32.75% # Number of insts commited each cycle
system.cpu.commit.committed_per_cycle::1     64347536     25.48%     58.23% # Number of insts commited each cycle
system.cpu.commit.committed_per_cycle::2     62029510     24.56%     82.79% # Number of insts commited each cycle
system.cpu.commit.committed_per_cycle::3      9245491      3.66%     86.45% # Number of insts commited each cycle
system.cpu.commit.committed_per_cycle::4      3709968      1.47%     87.92% # Number of insts commited each cycle
system.cpu.commit.committed_per_cycle::5     16762763      6.64%     94.56% # Number of insts commited each cycle
system.cpu.commit.committed_per_cycle::6       938120      0.37%     94.93% # Number of insts commited each cycle
system.cpu.commit.committed_per_cycle::7      3847766      1.52%     96.45% # Number of insts commited each cycle
system.cpu.commit.committed_per_cycle::8      8962437      3.55%    100.00% # Number of insts commited each cycle
system.cpu.commit.committed_per_cycle::overflows            0      0.00%    100.00% # Number of insts commited each cycle
system.cpu.commit.committed_per_cycle::min_value            0                       # Number of insts commited each cycle
system.cpu.commit.committed_per_cycle::max_value            8                       # Number of insts commited each cycle
system.cpu.commit.committed_per_cycle::total    252541179                       # Number of insts commited each cycle
system.cpu.commit.committedInsts            402752346                       # Number of instructions committed
system.cpu.commit.committedOps              419059294                       # Number of ops (including micro ops) committed
system.cpu.commit.swp_count                         0                       # Number of s/w prefetches committed
system.cpu.commit.refs                       74890796                       # Number of memory references committed
system.cpu.commit.loads                      37188662                       # Number of loads committed
system.cpu.commit.membars                         584                       # Number of memory barriers committed
system.cpu.commit.branches                   48961033                       # Number of branches committed
system.cpu.commit.vec_insts                         0                       # Number of committed Vector instructions.
system.cpu.commit.fp_insts                         16                       # Number of committed floating point instructions.
system.cpu.commit.int_insts                 376724609                       # Number of committed integer instructions.
system.cpu.commit.function_calls              3239996                       # Number of function calls committed.
system.cpu.commit.op_class_0::No_OpClass            0      0.00%      0.00% # Class of committed instruction
system.cpu.commit.op_class_0::IntAlu        342416928     81.71%     81.71% # Class of committed instruction
system.cpu.commit.op_class_0::IntMult         1596889      0.38%     82.09% # Class of committed instruction
system.cpu.commit.op_class_0::IntDiv                0      0.00%     82.09% # Class of committed instruction
system.cpu.commit.op_class_0::FloatAdd              0      0.00%     82.09% # Class of committed instruction
system.cpu.commit.op_class_0::FloatCmp              0      0.00%     82.09% # Class of committed instruction
system.cpu.commit.op_class_0::FloatCvt              0      0.00%     82.09% # Class of committed instruction
system.cpu.commit.op_class_0::FloatMult             0      0.00%     82.09% # Class of committed instruction
system.cpu.commit.op_class_0::FloatMultAcc            0      0.00%     82.09% # Class of committed instruction
system.cpu.commit.op_class_0::FloatDiv              0      0.00%     82.09% # Class of committed instruction
system.cpu.commit.op_class_0::FloatMisc             0      0.00%     82.09% # Class of committed instruction
system.cpu.commit.op_class_0::FloatSqrt             0      0.00%     82.09% # Class of committed instruction
system.cpu.commit.op_class_0::SimdAdd               0      0.00%     82.09% # Class of committed instruction
system.cpu.commit.op_class_0::SimdAddAcc            0      0.00%     82.09% # Class of committed instruction
system.cpu.commit.op_class_0::SimdAlu               0      0.00%     82.09% # Class of committed instruction
system.cpu.commit.op_class_0::SimdCmp               0      0.00%     82.09% # Class of committed instruction
system.cpu.commit.op_class_0::SimdCvt               0      0.00%     82.09% # Class of committed instruction
system.cpu.commit.op_class_0::SimdMisc              0      0.00%     82.09% # Class of committed instruction
system.cpu.commit.op_class_0::SimdMult              0      0.00%     82.09% # Class of committed instruction
system.cpu.commit.op_class_0::SimdMultAcc            0      0.00%     82.09% # Class of committed instruction
system.cpu.commit.op_class_0::SimdShift             0      0.00%     82.09% # Class of committed instruction
system.cpu.commit.op_class_0::SimdShiftAcc            0      0.00%     82.09% # Class of committed instruction
system.cpu.commit.op_class_0::SimdSqrt              0      0.00%     82.09% # Class of committed instruction
system.cpu.commit.op_class_0::SimdFloatAdd            0      0.00%     82.09% # Class of committed instruction
system.cpu.commit.op_class_0::SimdFloatAlu            0      0.00%     82.09% # Class of committed instruction
system.cpu.commit.op_class_0::SimdFloatCmp            0      0.00%     82.09% # Class of committed instruction
system.cpu.commit.op_class_0::SimdFloatCvt            0      0.00%     82.09% # Class of committed instruction
system.cpu.commit.op_class_0::SimdFloatDiv            0      0.00%     82.09% # Class of committed instruction
system.cpu.commit.op_class_0::SimdFloatMisc       154681      0.04%     82.13% # Class of committed instruction
system.cpu.commit.op_class_0::SimdFloatMult            0      0.00%     82.13% # Class of committed instruction
system.cpu.commit.op_class_0::SimdFloatMultAcc            0      0.00%     82.13% # Class of committed instruction
system.cpu.commit.op_class_0::SimdFloatSqrt            0      0.00%     82.13% # Class of committed instruction
system.cpu.commit.op_class_0::MemRead        37188662      8.87%     91.00% # Class of committed instruction
[...]
system.l2.demand_miss_rate::cpu.data         0.088757                       # miss rate for demand accesses
system.l2.demand_miss_rate::total            0.175129                       # miss rate for demand accesses
system.l2.overall_miss_rate::cpu.inst        0.411651                       # miss rate for overall accesses
system.l2.overall_miss_rate::cpu.data        0.088757                       # miss rate for overall accesses
system.l2.overall_miss_rate::total           0.175129                       # miss rate for overall accesses
system.l2.ReadExReq_avg_miss_latency::cpu.data 113814.960630                       # average ReadExReq miss latency
system.l2.ReadExReq_avg_miss_latency::total 113814.960630                       # average ReadExReq miss latency
system.l2.ReadCleanReq_avg_miss_latency::cpu.inst 108201.030928                       # average ReadCleanReq miss latency
system.l2.ReadCleanReq_avg_miss_latency::total 108201.030928                       # average ReadCleanReq miss latency
system.l2.ReadSharedReq_avg_miss_latency::cpu.data 180162.027833                       # average ReadSharedReq miss latency
system.l2.ReadSharedReq_avg_miss_latency::total 180162.027833                       # average ReadSharedReq miss latency
system.l2.demand_avg_miss_latency::cpu.inst 108201.030928                       # average overall miss latency
system.l2.demand_avg_miss_latency::cpu.data 166787.301587                       # average overall miss latency
system.l2.demand_avg_miss_latency::total 129950.795522                       # average overall miss latency
system.l2.overall_avg_miss_latency::cpu.inst 108201.030928                       # average overall miss latency
system.l2.overall_avg_miss_latency::cpu.data 166787.301587                       # average overall miss latency
system.l2.overall_avg_miss_latency::total 129950.795522                       # average overall miss latency
system.l2.blocked_cycles::no_mshrs                  0                       # number of cycles access was blocked
system.l2.blocked_cycles::no_targets                0                       # number of cycles access was blocked
system.l2.blocked::no_mshrs                         0                       # number of cycles access was blocked
system.l2.blocked::no_targets                       0                       # number of cycles access was blocked
system.l2.avg_blocked_cycles::no_mshrs            nan                       # average number of cycles each access was blocked
system.l2.avg_blocked_cycles::no_targets          nan                       # average number of cycles each access was blocked
system.l2.ReadExReq_mshr_hits::cpu.data            30                       # number of ReadExReq MSHR hits
system.l2.ReadExReq_mshr_hits::total               30                       # number of ReadExReq MSHR hits
system.l2.ReadCleanReq_mshr_hits::cpu.inst            1                       # number of ReadCleanReq MSHR hits
system.l2.ReadCleanReq_mshr_hits::total             1                       # number of ReadCleanReq MSHR hits
system.l2.ReadSharedReq_mshr_hits::cpu.data            9                       # number of ReadSharedReq MSHR hits
system.l2.ReadSharedReq_mshr_hits::total            9                       # number of ReadSharedReq MSHR hits
system.l2.demand_mshr_hits::cpu.inst                1                       # number of demand (read+write) MSHR hits
system.l2.demand_mshr_hits::cpu.data               39                       # number of demand (read+write) MSHR hits
system.l2.demand_mshr_hits::total                  40                       # number of demand (read+write) MSHR hits
system.l2.overall_mshr_hits::cpu.inst               1                       # number of overall MSHR hits
system.l2.overall_mshr_hits::cpu.data              39                       # number of overall MSHR hits
system.l2.overall_mshr_hits::total                 40                       # number of overall MSHR hits
system.l2.HardPFReq_mshr_misses::l2.prefetcher         3405                       # number of HardPFReq MSHR misses
system.l2.HardPFReq_mshr_misses::total           3405                       # number of HardPFReq MSHR misses
system.l2.ReadExReq_mshr_misses::cpu.data           97                       # number of ReadExReq MSHR misses
system.l2.ReadExReq_mshr_misses::total             97                       # number of ReadExReq MSHR misses
system.l2.ReadCleanReq_mshr_misses::cpu.inst         1066                       # number of ReadCleanReq MSHR misses
system.l2.ReadCleanReq_mshr_misses::total         1066                       # number of ReadCleanReq MSHR misses
system.l2.ReadSharedReq_mshr_misses::cpu.data          494                       # number of ReadSharedReq MSHR misses
system.l2.ReadSharedReq_mshr_misses::total          494                       # number of ReadSharedReq MSHR misses
system.l2.demand_mshr_misses::cpu.inst           1066                       # number of demand (read+write) MSHR misses
system.l2.demand_mshr_misses::cpu.data            591                       # number of demand (read+write) MSHR misses
system.l2.demand_mshr_misses::total              1657                       # number of demand (read+write) MSHR misses
system.l2.overall_mshr_misses::cpu.inst          1066                       # number of overall MSHR misses
system.l2.overall_mshr_misses::cpu.data           591                       # number of overall MSHR misses
system.l2.overall_mshr_misses::l2.prefetcher         3405                       # number of overall MSHR misses
system.l2.overall_mshr_misses::total             5062                       # number of overall MSHR misses
system.l2.HardPFReq_mshr_miss_latency::l2.prefetcher     94527411                       # number of HardPFReq MSHR miss cycles
system.l2.HardPFReq_mshr_miss_latency::total     94527411                       # number of HardPFReq MSHR miss cycles
system.l2.ReadExReq_mshr_miss_latency::cpu.data     12633500                       # number of ReadExReq MSHR miss cycles
system.l2.ReadExReq_mshr_miss_latency::total     12633500                       # number of ReadExReq MSHR miss cycles
system.l2.ReadCleanReq_mshr_miss_latency::cpu.inst    108995000                       # number of ReadCleanReq MSHR miss cycles
system.l2.ReadCleanReq_mshr_miss_latency::total    108995000                       # number of ReadCleanReq MSHR miss cycles
system.l2.ReadSharedReq_mshr_miss_latency::cpu.data     87093500                       # number of ReadSharedReq MSHR miss cycles
system.l2.ReadSharedReq_mshr_miss_latency::total     87093500                       # number of ReadSharedReq MSHR miss cycles
system.l2.demand_mshr_miss_latency::cpu.inst    108995000                       # number of demand (read+write) MSHR miss cycles
system.l2.demand_mshr_miss_latency::cpu.data     99727000                       # number of demand (read+write) MSHR miss cycles
system.l2.demand_mshr_miss_latency::total    208722000                       # number of demand (read+write) MSHR miss cycles
system.l2.overall_mshr_miss_latency::cpu.inst    108995000                       # number of overall MSHR miss cycles
system.l2.overall_mshr_miss_latency::cpu.data     99727000                       # number of overall MSHR miss cycles
system.l2.overall_mshr_miss_latency::l2.prefetcher     94527411                       # number of overall MSHR miss cycles
system.l2.overall_mshr_miss_latency::total    303249411                       # number of overall MSHR miss cycles
system.l2.HardPFReq_mshr_miss_rate::l2.prefetcher          inf                       # mshr miss rate for HardPFReq accesses
system.l2.HardPFReq_mshr_miss_rate::total          inf                       # mshr miss rate for HardPFReq accesses
system.l2.ReadExReq_mshr_miss_rate::cpu.data     0.026082                       # mshr miss rate for ReadExReq accesses
system.l2.ReadExReq_mshr_miss_rate::total     0.026082                       # mshr miss rate for ReadExReq accesses
system.l2.ReadCleanReq_mshr_miss_rate::cpu.inst     0.411265                       # mshr miss rate for ReadCleanReq accesses
system.l2.ReadCleanReq_mshr_miss_rate::total     0.411265                       # mshr miss rate for ReadCleanReq accesses
system.l2.ReadSharedReq_mshr_miss_rate::cpu.data     0.146197                       # mshr miss rate for ReadSharedReq accesses
system.l2.ReadSharedReq_mshr_miss_rate::total     0.146197                       # mshr miss rate for ReadSharedReq accesses
system.l2.demand_mshr_miss_rate::cpu.inst     0.411265                       # mshr miss rate for demand accesses
system.l2.demand_mshr_miss_rate::cpu.data     0.083263                       # mshr miss rate for demand accesses
system.l2.demand_mshr_miss_rate::total       0.171001                       # mshr miss rate for demand accesses
system.l2.overall_mshr_miss_rate::cpu.inst     0.411265                       # mshr miss rate for overall accesses
system.l2.overall_mshr_miss_rate::cpu.data     0.083263                       # mshr miss rate for overall accesses
system.l2.overall_mshr_miss_rate::l2.prefetcher          inf                       # mshr miss rate for overall accesses
system.l2.overall_mshr_miss_rate::total      0.522394                       # mshr miss rate for overall accesses
system.l2.HardPFReq_avg_mshr_miss_latency::l2.prefetcher 27761.354185                       # average HardPFReq mshr miss latency
system.l2.HardPFReq_avg_mshr_miss_latency::total 27761.354185                       # average HardPFReq mshr miss latency
system.l2.ReadExReq_avg_mshr_miss_latency::cpu.data 130242.268041                       # average ReadExReq mshr miss latency
system.l2.ReadExReq_avg_mshr_miss_latency::total 130242.268041                       # average ReadExReq mshr miss latency
system.l2.ReadCleanReq_avg_mshr_miss_latency::cpu.inst 102246.716698                       # average ReadCleanReq mshr miss latency
system.l2.ReadCleanReq_avg_mshr_miss_latency::total 102246.716698                       # average ReadCleanReq mshr miss latency
system.l2.ReadSharedReq_avg_mshr_miss_latency::cpu.data 176302.631579                       # average ReadSharedReq mshr miss latency
system.l2.ReadSharedReq_avg_mshr_miss_latency::total 176302.631579                       # average ReadSharedReq mshr miss latency
system.l2.demand_avg_mshr_miss_latency::cpu.inst 102246.716698                       # average overall mshr miss latency
system.l2.demand_avg_mshr_miss_latency::cpu.data 168742.808799                       # average overall mshr miss latency
system.l2.demand_avg_mshr_miss_latency::total 125963.789982                       # average overall mshr miss latency
system.l2.overall_avg_mshr_miss_latency::cpu.inst 102246.716698                       # average overall mshr miss latency
system.l2.overall_avg_mshr_miss_latency::cpu.data 168742.808799                       # average overall mshr miss latency
system.l2.overall_avg_mshr_miss_latency::l2.prefetcher 27761.354185                       # average overall mshr miss latency
system.l2.overall_avg_mshr_miss_latency::total 59907.034966                       # average overall mshr miss latency
system.membus.snoop_filter.tot_requests          3187                       # Total number of requests made to the snoop filter.
system.membus.snoop_filter.hit_single_requests          369                       # Number of requests hitting in the snoop filter with a single holder of the requested data.
system.membus.snoop_filter.hit_multi_requests            0                       # Number of requests hitting in the snoop filter with multiple (>1) holders of the requested data.
system.membus.snoop_filter.tot_snoops               0                       # Total number of snoops made to the snoop filter.
system.membus.snoop_filter.hit_single_snoops            0                       # Number of snoops hitting in the snoop filter with a single holder of the requested data.
system.membus.snoop_filter.hit_multi_snoops            0                       # Number of snoops hitting in the snoop filter with multiple (>1) holders of the requested data.
system.membus.pwrStateResidencyTicks::UNDEFINED 130619352500                       # Cumulative time (in ticks) in various power states
system.membus.trans_dist::ReadResp               3090                       # Transaction distribution
system.membus.trans_dist::ReadExReq                97                       # Transaction distribution
system.membus.trans_dist::ReadExResp               97                       # Transaction distribution
system.membus.trans_dist::ReadSharedReq          3090                       # Transaction distribution
system.membus.pkt_count_system.l2.mem_side::system.mem_ctrls.port         6374                       # Packet count per connected master and slave (bytes)
system.membus.pkt_count::total                   6374                       # Packet count per connected master and slave (bytes)
system.membus.pkt_size_system.l2.mem_side::system.mem_ctrls.port       203968                       # Cumulative packet size per connected master and slave (bytes)
system.membus.pkt_size::total                  203968                       # Cumulative packet size per connected master and slave (bytes)
system.membus.snoops                                0                       # Total snoops (count)
system.membus.snoopTraffic                          0                       # Total snoop traffic (bytes)
system.membus.snoop_fanout::samples              3187                       # Request fanout histogram
system.membus.snoop_fanout::mean                    0                       # Request fanout histogram
system.membus.snoop_fanout::stdev                   0                       # Request fanout histogram
system.membus.snoop_fanout::underflows              0      0.00%      0.00% # Request fanout histogram
system.membus.snoop_fanout::0                    3187    100.00%    100.00% # Request fanout histogram
system.membus.snoop_fanout::1                       0      0.00%    100.00% # Request fanout histogram
system.membus.snoop_fanout::overflows               0      0.00%    100.00% # Request fanout histogram
system.membus.snoop_fanout::min_value               0                       # Request fanout histogram
system.membus.snoop_fanout::max_value               0                       # Request fanout histogram
system.membus.snoop_fanout::total                3187                       # Request fanout histogram
system.membus.reqLayer0.occupancy             4763187                       # Layer occupancy (ticks)
system.membus.reqLayer0.utilization               0.0                       # Layer utilization (%)
system.membus.respLayer1.occupancy           16731514                       # Layer occupancy (ticks)
system.membus.respLayer1.utilization              0.0                       # Layer utilization (%)
system.tol2bus.snoop_filter.tot_requests        17867                       # Total number of requests made to the snoop filter.
system.tol2bus.snoop_filter.hit_single_requests         8195                       # Number of requests hitting in the snoop filter with a single holder of the requested data.
system.tol2bus.snoop_filter.hit_multi_requests          361                       # Number of requests hitting in the snoop filter with multiple (>1) holders of the requested data.
system.tol2bus.snoop_filter.tot_snoops           1874                       # Total number of snoops made to the snoop filter.
system.tol2bus.snoop_filter.hit_single_snoops         1874                       # Number of snoops hitting in the snoop filter with a single holder of the requested data.
system.tol2bus.snoop_filter.hit_multi_snoops            0                       # Number of snoops hitting in the snoop filter with multiple (>1) holders of the requested data.
system.tol2bus.pwrStateResidencyTicks::UNDEFINED 130619352500                       # Cumulative time (in ticks) in various power states
system.tol2bus.trans_dist::ReadResp              5970                       # Transaction distribution
system.tol2bus.trans_dist::WritebackDirty         5046                       # Transaction distribution
system.tol2bus.trans_dist::WritebackClean         3131                       # Transaction distribution
system.tol2bus.trans_dist::HardPFReq             3640                       # Transaction distribution
system.tol2bus.trans_dist::ReadExReq             3719                       # Transaction distribution
system.tol2bus.trans_dist::ReadExResp            3719                       # Transaction distribution
system.tol2bus.trans_dist::ReadCleanReq          2592                       # Transaction distribution
system.tol2bus.trans_dist::ReadSharedReq         3379                       # Transaction distribution
system.tol2bus.pkt_count_system.cpu.icache.mem_side::system.l2.cpu_side         7286                       # Packet count per connected master and slave (bytes)
system.tol2bus.pkt_count_system.cpu.dcache.mem_side::system.l2.cpu_side        20270                       # Packet count per connected master and slave (bytes)
system.tol2bus.pkt_count::total                 27556                       # Packet count per connected master and slave (bytes)
system.tol2bus.pkt_size_system.cpu.icache.mem_side::system.l2.cpu_side       300416                       # Cumulative packet size per connected master and slave (bytes)
system.tol2bus.pkt_size_system.cpu.dcache.mem_side::system.l2.cpu_side       843008                       # Cumulative packet size per connected master and slave (bytes)
system.tol2bus.pkt_size::total                1143424                       # Cumulative packet size per connected master and slave (bytes)
system.tol2bus.snoops                            3640                       # Total snoops (count)
system.tol2bus.snoopTraffic                         0                       # Total snoop traffic (bytes)
system.tol2bus.snoop_fanout::samples            13330                       # Request fanout histogram
system.tol2bus.snoop_fanout::mean            0.169017                       # Request fanout histogram
system.tol2bus.snoop_fanout::stdev           0.374781                       # Request fanout histogram
system.tol2bus.snoop_fanout::underflows             0      0.00%      0.00% # Request fanout histogram
system.tol2bus.snoop_fanout::0                  11077     83.10%     83.10% # Request fanout histogram
system.tol2bus.snoop_fanout::1                   2253     16.90%    100.00% # Request fanout histogram
system.tol2bus.snoop_fanout::2                      0      0.00%    100.00% # Request fanout histogram
system.tol2bus.snoop_fanout::3                      0      0.00%    100.00% # Request fanout histogram
system.tol2bus.snoop_fanout::4                      0      0.00%    100.00% # Request fanout histogram
system.tol2bus.snoop_fanout::overflows              0      0.00%    100.00% # Request fanout histogram
system.tol2bus.snoop_fanout::min_value              0                       # Request fanout histogram
system.tol2bus.snoop_fanout::max_value              1                       # Request fanout histogram
system.tol2bus.snoop_fanout::total              13330                       # Request fanout histogram
system.tol2bus.reqLayer0.occupancy           17110500                       # Layer occupancy (ticks)
system.tol2bus.reqLayer0.utilization              0.0                       # Layer utilization (%)
system.tol2bus.respLayer0.occupancy           3887498                       # Layer occupancy (ticks)
system.tol2bus.respLayer0.utilization             0.0                       # Layer utilization (%)
system.tol2bus.respLayer1.occupancy          10651491                       # Layer occupancy (ticks)
system.tol2bus.respLayer1.utilization             0.0                       # Layer utilization (%)

---------- End Simulation Statistics   ----------
