
---------- Begin Simulation Statistics ----------
sim_seconds                                  0.424883                       # Number of seconds simulated
sim_ticks                                424883264000                       # Number of ticks simulated
final_tick                               424883264000                       # Number of ticks from beginning of simulation (restored from checkpoints and never reset)
sim_freq                                 1000000000000                       # Frequency of simulated ticks
host_inst_rate                                1734034                       # Simulator instruction rate (inst/s)
host_op_rate                                  1966139                       # Simulator op (including micro ops) rate (op/s)
host_tick_rate                             1189779404                       # Simulator tick rate (ticks/s)
host_mem_usage                                 741116                       # Number of bytes of host memory used
host_seconds                                   357.11                       # Real time elapsed on the host
sim_insts                                   619242535                       # Number of instructions simulated
sim_ops                                     702129730                       # Number of ops (including micro ops) simulated
system.voltage_domain.voltage                       1                       # Voltage in Volts
system.clk_domain.clock                          1000                       # Clock period in ticks
system.mem_ctrls.pwrStateResidencyTicks::UNDEFINED 424883264000                       # Cumulative time (in ticks) in various power states
system.mem_ctrls.bytes_read::cpu0.inst          73600                       # Number of bytes read from this memory
system.mem_ctrls.bytes_read::cpu0.data        3338560                       # Number of bytes read from this memory
system.mem_ctrls.bytes_read::cpu1.inst           4736                       # Number of bytes read from this memory
system.mem_ctrls.bytes_read::cpu1.data        1181568                       # Number of bytes read from this memory
system.mem_ctrls.bytes_read::cpu2.inst           1664                       # Number of bytes read from this memory
system.mem_ctrls.bytes_read::cpu2.data        1221824                       # Number of bytes read from this memory
system.mem_ctrls.bytes_read::cpu3.inst           1792                       # Number of bytes read from this memory
system.mem_ctrls.bytes_read::cpu3.data        1237760                       # Number of bytes read from this memory
system.mem_ctrls.bytes_read::total            7061504                       # Number of bytes read from this memory
system.mem_ctrls.bytes_inst_read::cpu0.inst        73600                       # Number of instructions bytes read from this memory
system.mem_ctrls.bytes_inst_read::cpu1.inst         4736                       # Number of instructions bytes read from this memory
system.mem_ctrls.bytes_inst_read::cpu2.inst         1664                       # Number of instructions bytes read from this memory
system.mem_ctrls.bytes_inst_read::cpu3.inst         1792                       # Number of instructions bytes read from this memory
system.mem_ctrls.bytes_inst_read::total         81792                       # Number of instructions bytes read from this memory
system.mem_ctrls.bytes_written::writebacks      3025472                       # Number of bytes written to this memory
system.mem_ctrls.bytes_written::total         3025472                       # Number of bytes written to this memory
system.mem_ctrls.num_reads::cpu0.inst            1150                       # Number of read requests responded to by this memory
system.mem_ctrls.num_reads::cpu0.data           52165                       # Number of read requests responded to by this memory
system.mem_ctrls.num_reads::cpu1.inst              74                       # Number of read requests responded to by this memory
system.mem_ctrls.num_reads::cpu1.data           18462                       # Number of read requests responded to by this memory
system.mem_ctrls.num_reads::cpu2.inst              26                       # Number of read requests responded to by this memory
system.mem_ctrls.num_reads::cpu2.data           19091                       # Number of read requests responded to by this memory
system.mem_ctrls.num_reads::cpu3.inst              28                       # Number of read requests responded to by this memory
system.mem_ctrls.num_reads::cpu3.data           19340                       # Number of read requests responded to by this memory
system.mem_ctrls.num_reads::total              110336                       # Number of read requests responded to by this memory
system.mem_ctrls.num_writes::writebacks         47273                       # Number of write requests responded to by this memory
system.mem_ctrls.num_writes::total              47273                       # Number of write requests responded to by this memory
system.mem_ctrls.bw_read::cpu0.inst            173224                       # Total read bandwidth from this memory (bytes/s)
system.mem_ctrls.bw_read::cpu0.data           7857594                       # Total read bandwidth from this memory (bytes/s)
system.mem_ctrls.bw_read::cpu1.inst             11147                       # Total read bandwidth from this memory (bytes/s)
system.mem_ctrls.bw_read::cpu1.data           2780924                       # Total read bandwidth from this memory (bytes/s)
system.mem_ctrls.bw_read::cpu2.inst              3916                       # Total read bandwidth from this memory (bytes/s)
system.mem_ctrls.bw_read::cpu2.data           2875670                       # Total read bandwidth from this memory (bytes/s)
system.mem_ctrls.bw_read::cpu3.inst              4218                       # Total read bandwidth from this memory (bytes/s)
system.mem_ctrls.bw_read::cpu3.data           2913177                       # Total read bandwidth from this memory (bytes/s)
system.mem_ctrls.bw_read::total              16619869                       # Total read bandwidth from this memory (bytes/s)
system.mem_ctrls.bw_inst_read::cpu0.inst       173224                       # Instruction read bandwidth from this memory (bytes/s)
system.mem_ctrls.bw_inst_read::cpu1.inst        11147                       # Instruction read bandwidth from this memory (bytes/s)
system.mem_ctrls.bw_inst_read::cpu2.inst         3916                       # Instruction read bandwidth from this memory (bytes/s)
system.mem_ctrls.bw_inst_read::cpu3.inst         4218                       # Instruction read bandwidth from this memory (bytes/s)
system.mem_ctrls.bw_inst_read::total           192505                       # Instruction read bandwidth from this memory (bytes/s)
system.mem_ctrls.bw_write::writebacks         7120714                       # Write bandwidth from this memory (bytes/s)
system.mem_ctrls.bw_write::total              7120714                       # Write bandwidth from this memory (bytes/s)
system.mem_ctrls.bw_total::writebacks         7120714                       # Total bandwidth to/from this memory (bytes/s)
system.mem_ctrls.bw_total::cpu0.inst           173224                       # Total bandwidth to/from this memory (bytes/s)
system.mem_ctrls.bw_total::cpu0.data          7857594                       # Total bandwidth to/from this memory (bytes/s)
system.mem_ctrls.bw_total::cpu1.inst            11147                       # Total bandwidth to/from this memory (bytes/s)
system.mem_ctrls.bw_total::cpu1.data          2780924                       # Total bandwidth to/from this memory (bytes/s)
system.mem_ctrls.bw_total::cpu2.inst             3916                       # Total bandwidth to/from this memory (bytes/s)
system.mem_ctrls.bw_total::cpu2.data          2875670                       # Total bandwidth to/from this memory (bytes/s)
system.mem_ctrls.bw_total::cpu3.inst             4218                       # Total bandwidth to/from this memory (bytes/s)
system.mem_ctrls.bw_total::cpu3.data          2913177                       # Total bandwidth to/from this memory (bytes/s)
system.mem_ctrls.bw_total::total             23740582                       # Total bandwidth to/from this memory (bytes/s)
system.mem_ctrls.readReqs                      110336                       # Number of read requests accepted
system.mem_ctrls.writeReqs                      47273                       # Number of write requests accepted
system.mem_ctrls.readBursts                    110336                       # Number of DRAM read bursts, including those serviced by the write queue
system.mem_ctrls.writeBursts                    47273                       # Number of DRAM write bursts, including those merged in the write queue
system.mem_ctrls.bytesReadDRAM                7053760                       # Total number of bytes read from DRAM
system.mem_ctrls.bytesReadWrQ                    7744                       # Total number of bytes read from write queue
system.mem_ctrls.bytesWritten                 3023872                       # Total number of bytes written to DRAM
system.mem_ctrls.bytesReadSys                 7061504                       # Total read bytes from the system interface side
system.mem_ctrls.bytesWrittenSys              3025472                       # Total written bytes from the system interface side
system.mem_ctrls.servicedByWrQ                    121                       # Number of DRAM read bursts serviced by the write queue
system.mem_ctrls.mergedWrBursts                     0                       # Number of DRAM write bursts merged with an existing one
system.mem_ctrls.neitherReadNorWriteReqs            0                       # Number of requests that are neither read nor write
system.mem_ctrls.perBankRdBursts::0              7383                       # Per bank write bursts
system.mem_ctrls.perBankRdBursts::1              6595                       # Per bank write bursts
system.mem_ctrls.perBankRdBursts::2              6984                       # Per bank write bursts
system.mem_ctrls.perBankRdBursts::3              6918                       # Per bank write bursts
system.mem_ctrls.perBankRdBursts::4              6518                       # Per bank write bursts
system.mem_ctrls.perBankRdBursts::5              6556                       # Per bank write bursts
system.mem_ctrls.perBankRdBursts::6              6675                       # Per bank write bursts
system.mem_ctrls.perBankRdBursts::7              6351                       # Per bank write bursts
system.mem_ctrls.perBankRdBursts::8              6488                       # Per bank write bursts
system.mem_ctrls.perBankRdBursts::9              6513                       # Per bank write bursts
system.mem_ctrls.perBankRdBursts::10             6517                       # Per bank write bursts
system.mem_ctrls.perBankRdBursts::11             6598                       # Per bank write bursts
system.mem_ctrls.perBankRdBursts::12             7514                       # Per bank write bursts
system.mem_ctrls.perBankRdBursts::13             8870                       # Per bank write bursts
system.mem_ctrls.perBankRdBursts::14             6464                       # Per bank write bursts
system.mem_ctrls.perBankRdBursts::15             7271                       # Per bank write bursts
system.mem_ctrls.perBankWrBursts::0              3330                       # Per bank write bursts
system.mem_ctrls.perBankWrBursts::1              2752                       # Per bank write bursts
system.mem_ctrls.perBankWrBursts::2              2942                       # Per bank write bursts
system.mem_ctrls.perBankWrBursts::3              2896                       # Per bank write bursts
system.mem_ctrls.perBankWrBursts::4              2676                       # Per bank write bursts
system.mem_ctrls.perBankWrBursts::5              2659                       # Per bank write bursts
system.mem_ctrls.perBankWrBursts::6              2714                       # Per bank write bursts
system.mem_ctrls.perBankWrBursts::7              2651                       # Per bank write bursts
system.mem_ctrls.perBankWrBursts::8              2691                       # Per bank write bursts
system.mem_ctrls.perBankWrBursts::9              2762                       # Per bank write bursts
system.mem_ctrls.perBankWrBursts::10             2707                       # Per bank write bursts
system.mem_ctrls.perBankWrBursts::11             2792                       # Per bank write bursts
system.mem_ctrls.perBankWrBursts::12             3394                       # Per bank write bursts
system.mem_ctrls.perBankWrBursts::13             4214                       # Per bank write bursts
system.mem_ctrls.perBankWrBursts::14             2715                       # Per bank write bursts
system.mem_ctrls.perBankWrBursts::15             3353                       # Per bank write bursts
system.mem_ctrls.numRdRetry                         0                       # Number of times read queue was full causing retry
system.mem_ctrls.numWrRetry                         0                       # Number of times write queue was full causing retry
system.mem_ctrls.totGap                  424883225000                       # Total gap between requests
system.mem_ctrls.readPktSize::0                     0                       # Read request sizes (log2)
system.mem_ctrls.readPktSize::1                     0                       # Read request sizes (log2)
system.mem_ctrls.readPktSize::2                     0                       # Read request sizes (log2)
system.mem_ctrls.readPktSize::3                     0                       # Read request sizes (log2)
system.mem_ctrls.readPktSize::4                     0                       # Read request sizes (log2)
system.mem_ctrls.readPktSize::5                     0                       # Read request sizes (log2)
system.mem_ctrls.readPktSize::6                110336                       # Read request sizes (log2)
system.mem_ctrls.writePktSize::0                    0                       # Write request sizes (log2)
system.mem_ctrls.writePktSize::1                    0                       # Write request sizes (log2)
system.mem_ctrls.writePktSize::2                    0                       # Write request sizes (log2)
system.mem_ctrls.writePktSize::3                    0                       # Write request sizes (log2)
system.mem_ctrls.writePktSize::4                    0                       # Write request sizes (log2)
system.mem_ctrls.writePktSize::5                    0                       # Write request sizes (log2)
system.mem_ctrls.writePktSize::6                47273                       # Write request sizes (log2)
system.mem_ctrls.rdQLenPdf::0                   79209                       # What read queue length does an incoming req see
system.mem_ctrls.rdQLenPdf::1                   19417                       # What read queue length does an incoming req see
system.mem_ctrls.rdQLenPdf::2                    8951                       # What read queue length does an incoming req see
system.mem_ctrls.rdQLenPdf::3                    2638                       # What read queue length does an incoming req see
system.mem_ctrls.rdQLenPdf::4                       0                       # What read queue length does an incoming req see
system.mem_ctrls.rdQLenPdf::5                       0                       # What read queue length does an incoming req see
system.mem_ctrls.rdQLenPdf::6                       0                       # What read queue length does an incoming req see
system.mem_ctrls.rdQLenPdf::7                       0                       # What read queue length does an incoming req see
system.mem_ctrls.rdQLenPdf::8                       0                       # What read queue length does an incoming req see
system.mem_ctrls.rdQLenPdf::9                       0                       # What read queue length does an incoming req see
system.mem_ctrls.rdQLenPdf::10                      0                       # What read queue length does an incoming req see
system.mem_ctrls.rdQLenPdf::11                      0                       # What read queue length does an incoming req see
system.mem_ctrls.rdQLenPdf::12                      0                       # What read queue length does an incoming req see
system.mem_ctrls.rdQLenPdf::13                      0                       # What read queue length does an incoming req see
system.mem_ctrls.rdQLenPdf::14                      0                       # What read queue length does an incoming req see
system.mem_ctrls.rdQLenPdf::15                      0                       # What read queue length does an incoming req see
system.mem_ctrls.rdQLenPdf::16                      0                       # What read queue length does an incoming req see
system.mem_ctrls.rdQLenPdf::17                      0                       # What read queue length does an incoming req see
system.mem_ctrls.rdQLenPdf::18                      0                       # What read queue length does an incoming req see
system.mem_ctrls.rdQLenPdf::19                      0                       # What read queue length does an incoming req see
system.mem_ctrls.rdQLenPdf::20                      0                       # What read queue length does an incoming req see
system.mem_ctrls.rdQLenPdf::21                      0                       # What read queue length does an incoming req see
system.mem_ctrls.rdQLenPdf::22                      0                       # What read queue length does an incoming req see
system.mem_ctrls.rdQLenPdf::23                      0                       # What read queue length does an incoming req see
system.mem_ctrls.rdQLenPdf::24                      0                       # What read queue length does an incoming req see
system.mem_ctrls.rdQLenPdf::25                      0                       # What read queue length does an incoming req see
system.mem_ctrls.rdQLenPdf::26                      0                       # What read queue length does an incoming req see
system.mem_ctrls.rdQLenPdf::27                      0                       # What read queue length does an incoming req see
system.mem_ctrls.rdQLenPdf::28                      0                       # What read queue length does an incoming req see
system.mem_ctrls.rdQLenPdf::29                      0                       # What read queue length does an incoming req see
system.mem_ctrls.rdQLenPdf::30                      0                       # What read queue length does an incoming req see
system.mem_ctrls.rdQLenPdf::31                      0                       # What read queue length does an incoming req see
system.mem_ctrls.wrQLenPdf::0                       1                       # What write queue length does an incoming req see
system.mem_ctrls.wrQLenPdf::1                       1                       # What write queue length does an incoming req see
system.mem_ctrls.wrQLenPdf::2                       1                       # What write queue length does an incoming req see
system.mem_ctrls.wrQLenPdf::3                       1                       # What write queue length does an incoming req see
system.mem_ctrls.wrQLenPdf::4                       1                       # What write queue length does an incoming req see
system.mem_ctrls.wrQLenPdf::5                       1                       # What write queue length does an incoming req see
system.mem_ctrls.wrQLenPdf::6                       1                       # What write queue length does an incoming req see
system.mem_ctrls.wrQLenPdf::7                       1                       # What write queue length does an incoming req see
system.mem_ctrls.wrQLenPdf::8                       1                       # What write queue length does an incoming req see
system.mem_ctrls.wrQLenPdf::9                       1                       # What write queue length does an incoming req see
system.mem_ctrls.wrQLenPdf::10                      1                       # What write queue length does an incoming req see
system.mem_ctrls.wrQLenPdf::11                      1                       # What write queue length does an incoming req see
system.mem_ctrls.wrQLenPdf::12                      1                       # What write queue length does an incoming req see
system.mem_ctrls.wrQLenPdf::13                      1                       # What write queue length does an incoming req see
system.mem_ctrls.wrQLenPdf::14                      1                       # What write queue length does an incoming req see
system.mem_ctrls.wrQLenPdf::15                    738                       # What write queue length does an incoming req see
system.mem_ctrls.wrQLenPdf::16                    771                       # What write queue length does an incoming req see
system.mem_ctrls.wrQLenPdf::17                   1366                       # What write queue length does an incoming req see
system.mem_ctrls.wrQLenPdf::18                   2130                       # What write queue length does an incoming req see
system.mem_ctrls.wrQLenPdf::19                   2801                       # What write queue length does an incoming req see
system.mem_ctrls.wrQLenPdf::20                   3049                       # What write queue length does an incoming req see
system.mem_ctrls.wrQLenPdf::21                   3043                       # What write queue length does an incoming req see
system.mem_ctrls.wrQLenPdf::22                   3042                       # What write queue length does an incoming req see
system.mem_ctrls.wrQLenPdf::23                   2995                       # What write queue length does an incoming req see
system.mem_ctrls.wrQLenPdf::24                   3009                       # What write queue length does an incoming req see
system.mem_ctrls.wrQLenPdf::25                   3012                       # What write queue length does an incoming req see
system.mem_ctrls.wrQLenPdf::26                   2992                       # What write queue length does an incoming req see
system.mem_ctrls.wrQLenPdf::27                   3012                       # What write queue length does an incoming req see
system.mem_ctrls.wrQLenPdf::28                   3028                       # What write queue length does an incoming req see
system.mem_ctrls.wrQLenPdf::29                   3080                       # What write queue length does an incoming req see
system.mem_ctrls.wrQLenPdf::30                   3108                       # What write queue length does an incoming req see
system.mem_ctrls.wrQLenPdf::31                   2992                       # What write queue length does an incoming req see
system.mem_ctrls.wrQLenPdf::32                   2961                       # What write queue length does an incoming req see
system.mem_ctrls.wrQLenPdf::33                     82                       # What write queue length does an incoming req see
system.mem_ctrls.wrQLenPdf::34                     24                       # What write queue length does an incoming req see
system.mem_ctrls.wrQLenPdf::35                     15                       # What write queue length does an incoming req see
system.mem_ctrls.wrQLenPdf::36                      6                       # What write queue length does an incoming req see
system.mem_ctrls.wrQLenPdf::37                      2                       # What write queue length does an incoming req see
system.mem_ctrls.wrQLenPdf::38                      0                       # What write queue length does an incoming req see
system.mem_ctrls.wrQLenPdf::39                      0                       # What write queue length does an incoming req see
system.mem_ctrls.wrQLenPdf::40                      0                       # What write queue length does an incoming req see
system.mem_ctrls.wrQLenPdf::41                      0                       # What write queue length does an incoming req see
system.mem_ctrls.wrQLenPdf::42                      0                       # What write queue length does an incoming req see
system.mem_ctrls.wrQLenPdf::43                      0                       # What write queue length does an incoming req see
system.mem_ctrls.wrQLenPdf::44                      0                       # What write queue length does an incoming req see
system.mem_ctrls.wrQLenPdf::45                      0                       # What write queue length does an incoming req see
system.mem_ctrls.wrQLenPdf::46                      0                       # What write queue length does an incoming req see
system.mem_ctrls.wrQLenPdf::47                      0                       # What write queue length does an incoming req see
system.mem_ctrls.wrQLenPdf::48                      0                       # What write queue length does an incoming req see
system.mem_ctrls.wrQLenPdf::49                      0                       # What write queue length does an incoming req see
system.mem_ctrls.wrQLenPdf::50                      0                       # What write queue length does an incoming req see
system.mem_ctrls.wrQLenPdf::51                      0                       # What write queue length does an incoming req see
system.mem_ctrls.wrQLenPdf::52                      0                       # What write queue length does an incoming req see
system.mem_ctrls.wrQLenPdf::53                      0                       # What write queue length does an incoming req see
system.mem_ctrls.wrQLenPdf::54                      0                       # What write queue length does an incoming req see
system.mem_ctrls.wrQLenPdf::55                      0                       # What write queue length does an incoming req see
system.mem_ctrls.wrQLenPdf::56                      0                       # What write queue length does an incoming req see
system.mem_ctrls.wrQLenPdf::57                      0                       # What write queue length does an incoming req see
system.mem_ctrls.wrQLenPdf::58                      0                       # What write queue length does an incoming req see
system.mem_ctrls.wrQLenPdf::59                      0                       # What write queue length does an incoming req see
system.mem_ctrls.wrQLenPdf::60                      0                       # What write queue length does an incoming req see
system.mem_ctrls.wrQLenPdf::61                      0                       # What write queue length does an incoming req see
system.mem_ctrls.wrQLenPdf::62                      0                       # What write queue length does an incoming req see
system.mem_ctrls.wrQLenPdf::63                      0                       # What write queue length does an incoming req see
system.mem_ctrls.bytesPerActivate::samples        81666                       # Bytes accessed per row activation
system.mem_ctrls.bytesPerActivate::mean    123.389611                       # Bytes accessed per row activation
system.mem_ctrls.bytesPerActivate::gmean    98.715350                       # Bytes accessed per row activation
system.mem_ctrls.bytesPerActivate::stdev   112.127589                       # Bytes accessed per row activation
system.mem_ctrls.bytesPerActivate::0-127        47291     57.91%     57.91% # Bytes accessed per row activation
system.mem_ctrls.bytesPerActivate::128-255        23814     29.16%     87.07% # Bytes accessed per row activation
system.mem_ctrls.bytesPerActivate::256-383         7639      9.35%     96.42% # Bytes accessed per row activation
system.mem_ctrls.bytesPerActivate::384-511         1719      2.10%     98.53% # Bytes accessed per row activation
system.mem_ctrls.bytesPerActivate::512-639          490      0.60%     99.13% # Bytes accessed per row activation
system.mem_ctrls.bytesPerActivate::640-767          221      0.27%     99.40% # Bytes accessed per row activation
system.mem_ctrls.bytesPerActivate::768-895          140      0.17%     99.57% # Bytes accessed per row activation
system.mem_ctrls.bytesPerActivate::896-1023           90      0.11%     99.68% # Bytes accessed per row activation
system.mem_ctrls.bytesPerActivate::1024-1151          262      0.32%    100.00% # Bytes accessed per row activation
system.mem_ctrls.bytesPerActivate::total        81666                       # Bytes accessed per row activation
system.mem_ctrls.rdPerTurnAround::samples         2846                       # Reads before turning the bus around for writes
system.mem_ctrls.rdPerTurnAround::mean      38.723472                       # Reads before turning the bus around for writes
system.mem_ctrls.rdPerTurnAround::gmean     22.325903                       # Reads before turning the bus around for writes
system.mem_ctrls.rdPerTurnAround::stdev    566.152415                       # Reads before turning the bus around for writes
system.mem_ctrls.rdPerTurnAround::0-1023         2845     99.96%     99.96% # Reads before turning the bus around for writes
system.mem_ctrls.rdPerTurnAround::29696-30719            1      0.04%    100.00% # Reads before turning the bus around for writes
system.mem_ctrls.rdPerTurnAround::total          2846                       # Reads before turning the bus around for writes
system.mem_ctrls.wrPerTurnAround::samples         2846                       # Writes before turning the bus around for reads
system.mem_ctrls.wrPerTurnAround::mean      16.601546                       # Writes before turning the bus around for reads
system.mem_ctrls.wrPerTurnAround::gmean     16.574175                       # Writes before turning the bus around for reads
system.mem_ctrls.wrPerTurnAround::stdev      0.976733                       # Writes before turning the bus around for reads
system.mem_ctrls.wrPerTurnAround::16             2010     70.63%     70.63% # Writes before turning the bus around for reads
system.mem_ctrls.wrPerTurnAround::17               51      1.79%     72.42% # Writes before turning the bus around for reads
system.mem_ctrls.wrPerTurnAround::18              726     25.51%     97.93% # Writes before turning the bus around for reads
system.mem_ctrls.wrPerTurnAround::19               40      1.41%     99.33% # Writes before turning the bus around for reads
system.mem_ctrls.wrPerTurnAround::20                9      0.32%     99.65% # Writes before turning the bus around for reads
system.mem_ctrls.wrPerTurnAround::21                8      0.28%     99.93% # Writes before turning the bus around for reads
system.mem_ctrls.wrPerTurnAround::22                1      0.04%     99.96% # Writes before turning the bus around for reads
system.mem_ctrls.wrPerTurnAround::23                1      0.04%    100.00% # Writes before turning the bus around for reads
system.mem_ctrls.wrPerTurnAround::total          2846                       # Writes before turning the bus around for reads
system.mem_ctrls.totQLat                   9944228500                       # Total ticks spent queuing
system.mem_ctrls.totMemAccLat             12010759750                       # Total ticks spent from burst creation until serviced by the DRAM
system.mem_ctrls.totBusLat                  551075000                       # Total ticks spent in databus transfers
system.mem_ctrls.avgQLat                     90225.73                       # Average queueing delay per DRAM burst
system.mem_ctrls.avgBusLat                    5000.00                       # Average bus latency per DRAM burst
system.mem_ctrls.avgMemAccLat               108975.73                       # Average memory access latency per DRAM burst
system.mem_ctrls.avgRdBW                        16.60                       # Average DRAM read bandwidth in MiByte/s
system.mem_ctrls.avgWrBW                         7.12                       # Average achieved write bandwidth in MiByte/s
system.mem_ctrls.avgRdBWSys                     16.62                       # Average system read bandwidth in MiByte/s
system.mem_ctrls.avgWrBWSys                      7.12                       # Average system write bandwidth in MiByte/s
system.mem_ctrls.peakBW                      12800.00                       # Theoretical peak bandwidth in MiByte/s
system.mem_ctrls.busUtil                         0.19                       # Data bus utilization in percentage
system.mem_ctrls.busUtilRead                     0.13                       # Data bus utilization in percentage for reads
system.mem_ctrls.busUtilWrite                    0.06                       # Data bus utilization in percentage for writes
system.mem_ctrls.avgRdQLen                       1.01                       # Average read queue length when enqueuing
system.mem_ctrls.avgWrQLen                      11.38                       # Average write queue length when enqueuing
system.mem_ctrls.readRowHits                    49492                       # Number of row buffer hits during reads
system.mem_ctrls.writeRowHits                   26296                       # Number of row buffer hits during writes
system.mem_ctrls.readRowHitRate                 44.90                       # Row buffer hit rate for reads
system.mem_ctrls.writeRowHitRate                55.63                       # Row buffer hit rate for writes
system.mem_ctrls.avgGap                    2695805.60                       # Average gap between requests
system.mem_ctrls.pageHitRate                    48.12                       # Row buffer hit rate, read and write combined
system.mem_ctrls_0.actEnergy                283101000                       # Energy for activate commands per rank (pJ)
system.mem_ctrls_0.preEnergy                150464160                       # Energy for precharge commands per rank (pJ)
system.mem_ctrls_0.readEnergy               385417200                       # Energy for read commands per rank (pJ)
system.mem_ctrls_0.writeEnergy              118076400                       # Energy for write commands per rank (pJ)
system.mem_ctrls_0.refreshEnergy         15699749520.000004                       # Energy for refresh commands per rank (pJ)
system.mem_ctrls_0.actBackEnergy           4113899190                       # Energy for active background per rank (pJ)
system.mem_ctrls_0.preBackEnergy            948011520                       # Energy for precharge background per rank (pJ)
system.mem_ctrls_0.actPowerDownEnergy     33759073650                       # Energy for active power-down per rank (pJ)
system.mem_ctrls_0.prePowerDownEnergy     24404592480                       # Energy for precharge power-down per rank (pJ)
system.mem_ctrls_0.selfRefreshEnergy      69989375310                       # Energy for self refresh per rank (pJ)
system.mem_ctrls_0.totalEnergy           149861660940                       # Total energy per rank (pJ)
system.mem_ctrls_0.averagePower            352.712549                       # Core power per rank (mW)
system.mem_ctrls_0.totalIdleTime         413370650750                       # Total Idle time Per DRAM Rank
system.mem_ctrls_0.memoryStateTime::IDLE   1891308500                       # Time in different power states
system.mem_ctrls_0.memoryStateTime::REF    6683252000                       # Time in different power states
system.mem_ctrls_0.memoryStateTime::SREF 275784151500                       # Time in different power states
system.mem_ctrls_0.memoryStateTime::PRE_PDN  63553507000                       # Time in different power states
system.mem_ctrls_0.memoryStateTime::ACT    2937994750                       # Time in different power states
system.mem_ctrls_0.memoryStateTime::ACT_PDN  74033050250                       # Time in different power states
system.mem_ctrls_1.actEnergy                300058500                       # Energy for activate commands per rank (pJ)
system.mem_ctrls_1.preEnergy                159458310                       # Energy for precharge commands per rank (pJ)
system.mem_ctrls_1.readEnergy               401517900                       # Energy for read commands per rank (pJ)
system.mem_ctrls_1.writeEnergy              128558160                       # Energy for write commands per rank (pJ)
system.mem_ctrls_1.refreshEnergy         15778423440.000004                       # Energy for refresh commands per rank (pJ)
system.mem_ctrls_1.actBackEnergy           4143016500                       # Energy for active background per rank (pJ)
system.mem_ctrls_1.preBackEnergy            953560320                       # Energy for precharge background per rank (pJ)
system.mem_ctrls_1.actPowerDownEnergy     34239323160                       # Energy for active power-down per rank (pJ)
system.mem_ctrls_1.prePowerDownEnergy     24286353600                       # Energy for precharge power-down per rank (pJ)
system.mem_ctrls_1.selfRefreshEnergy      69805877025                       # Energy for self refresh per rank (pJ)
system.mem_ctrls_1.totalEnergy           150207634095                       # Total energy per rank (pJ)
system.mem_ctrls_1.averagePower            353.526831                       # Core power per rank (mW)
system.mem_ctrls_1.totalIdleTime         413288606250                       # Total Idle time Per DRAM Rank
system.mem_ctrls_1.memoryStateTime::IDLE   1899006250                       # Time in different power states
system.mem_ctrls_1.memoryStateTime::REF    6716598000                       # Time in different power states
system.mem_ctrls_1.memoryStateTime::SREF 274956940000                       # Time in different power states
system.mem_ctrls_1.memoryStateTime::PRE_PDN  63245468250                       # Time in different power states
system.mem_ctrls_1.memoryStateTime::ACT    2978851250                       # Time in different power states
system.mem_ctrls_1.memoryStateTime::ACT_PDN  75086400250                       # Time in different power states
system.pwrStateResidencyTicks::UNDEFINED 424883264000                       # Cumulative time (in ticks) in various power states
system.cpu_voltage_domain.voltage                   1                       # Voltage in Volts
system.cpu_clk_domain.clock                       500                       # Clock period in ticks
system.cpu0.dstage2_mmu.stage2_tlb.walker.pwrStateResidencyTicks::UNDEFINED 424883264000                       # Cumulative time (in ticks) in various power states
system.cpu0.dstage2_mmu.stage2_tlb.walker.walks            0                       # Table walker walks requested
system.cpu0.dstage2_mmu.stage2_tlb.walker.walkRequestOrigin_Requested::Data            0                       # Table walker requests started/completed, data/inst
system.cpu0.dstage2_mmu.stage2_tlb.walker.walkRequestOrigin_Requested::Inst            0                       # Table walker requests started/completed, data/inst
system.cpu0.dstage2_mmu.stage2_tlb.walker.walkRequestOrigin_Requested::total            0                       # Table walker requests started/completed, data/inst
system.cpu0.dstage2_mmu.stage2_tlb.walker.walkRequestOrigin_Completed::Data            0                       # Table walker requests started/completed, data/inst
system.cpu0.dstage2_mmu.stage2_tlb.walker.walkRequestOrigin_Completed::Inst            0                       # Table walker requests started/completed, data/inst
system.cpu0.dstage2_mmu.stage2_tlb.walker.walkRequestOrigin_Completed::total            0                       # Table walker requests started/completed, data/inst
system.cpu0.dstage2_mmu.stage2_tlb.walker.walkRequestOrigin::total            0                       # Table walker requests started/completed, data/inst
system.cpu0.dstage2_mmu.stage2_tlb.inst_hits            0                       # ITB inst hits
system.cpu0.dstage2_mmu.stage2_tlb.inst_misses            0                       # ITB inst misses
system.cpu0.dstage2_mmu.stage2_tlb.read_hits            0                       # DTB read hits
system.cpu0.dstage2_mmu.stage2_tlb.read_misses            0                       # DTB read misses
system.cpu0.dstage2_mmu.stage2_tlb.write_hits            0                       # DTB write hits
system.cpu0.dstage2_mmu.stage2_tlb.write_misses            0                       # DTB write misses
system.cpu0.dstage2_mmu.stage2_tlb.flush_tlb            0                       # Number of times complete TLB was flushed
system.cpu0.dstage2_mmu.stage2_tlb.flush_tlb_mva            0                       # Number of times TLB was flushed by MVA
system.cpu0.dstage2_mmu.stage2_tlb.flush_tlb_mva_asid            0                       # Number of times TLB was flushed by MVA & ASID
system.cpu0.dstage2_mmu.stage2_tlb.flush_tlb_asid            0                       # Number of times TLB was flushed by ASID
system.cpu0.dstage2_mmu.stage2_tlb.flush_entries            0                       # Number of entries that have been flushed from TLB
system.cpu0.dstage2_mmu.stage2_tlb.align_faults            0                       # Number of TLB faults due to alignment restrictions
system.cpu0.dstage2_mmu.stage2_tlb.prefetch_faults            0                       # Number of TLB faults due to prefetch
system.cpu0.dstage2_mmu.stage2_tlb.domain_faults            0                       # Number of TLB faults due to domain restrictions
system.cpu0.dstage2_mmu.stage2_tlb.perms_faults            0                       # Number of TLB faults due to permissions restrictions
system.cpu0.dstage2_mmu.stage2_tlb.read_accesses            0                       # DTB read accesses
system.cpu0.dstage2_mmu.stage2_tlb.write_accesses            0                       # DTB write accesses
system.cpu0.dstage2_mmu.stage2_tlb.inst_accesses            0                       # ITB inst accesses
system.cpu0.dstage2_mmu.stage2_tlb.hits             0                       # DTB hits
system.cpu0.dstage2_mmu.stage2_tlb.misses            0                       # DTB misses
system.cpu0.dstage2_mmu.stage2_tlb.accesses            0                       # DTB accesses
system.cpu0.dtb.walker.pwrStateResidencyTicks::UNDEFINED 424883264000                       # Cumulative time (in ticks) in various power states
system.cpu0.dtb.walker.walks                        0                       # Table walker walks requested
system.cpu0.dtb.walker.walkRequestOrigin_Requested::Data            0                       # Table walker requests started/completed, data/inst
system.cpu0.dtb.walker.walkRequestOrigin_Requested::Inst            0                       # Table walker requests started/completed, data/inst
system.cpu0.dtb.walker.walkRequestOrigin_Requested::total            0                       # Table walker requests started/completed, data/inst
system.cpu0.dtb.walker.walkRequestOrigin_Completed::Data            0                       # Table walker requests started/completed, data/inst
system.cpu0.dtb.walker.walkRequestOrigin_Completed::Inst            0                       # Table walker requests started/completed, data/inst
system.cpu0.dtb.walker.walkRequestOrigin_Completed::total            0                       # Table walker requests started/completed, data/inst
system.cpu0.dtb.walker.walkRequestOrigin::total            0                       # Table walker requests started/completed, data/inst
system.cpu0.dtb.inst_hits                           0                       # ITB inst hits
system.cpu0.dtb.inst_misses                         0                       # ITB inst misses
system.cpu0.dtb.read_hits                           0                       # DTB read hits
system.cpu0.dtb.read_misses                         0                       # DTB read misses
system.cpu0.dtb.write_hits                          0                       # DTB write hits
system.cpu0.dtb.write_misses                        0                       # DTB write misses
system.cpu0.dtb.flush_tlb                           0                       # Number of times complete TLB was flushed
system.cpu0.dtb.flush_tlb_mva                       0                       # Number of times TLB was flushed by MVA
system.cpu0.dtb.flush_tlb_mva_asid                  0                       # Number of times TLB was flushed by MVA & ASID
system.cpu0.dtb.flush_tlb_asid                      0                       # Number of times TLB was flushed by ASID
system.cpu0.dtb.flush_entries                       0                       # Number of entries that have been flushed from TLB
system.cpu0.dtb.align_faults                        0                       # Number of TLB faults due to alignment restrictions
system.cpu0.dtb.prefetch_faults                     0                       # Number of TLB faults due to prefetch
system.cpu0.dtb.domain_faults                       0                       # Number of TLB faults due to domain restrictions
system.cpu0.dtb.perms_faults                        0                       # Number of TLB faults due to permissions restrictions
system.cpu0.dtb.read_accesses                       0                       # DTB read accesses
system.cpu0.dtb.write_accesses                      0                       # DTB write accesses
system.cpu0.dtb.inst_accesses                       0                       # ITB inst accesses
system.cpu0.dtb.hits                                0                       # DTB hits
system.cpu0.dtb.misses                              0                       # DTB misses
system.cpu0.dtb.accesses                            0                       # DTB accesses
system.cpu0.istage2_mmu.stage2_tlb.walker.pwrStateResidencyTicks::UNDEFINED 424883264000                       # Cumulative time (in ticks) in various power states
system.cpu0.istage2_mmu.stage2_tlb.walker.walks            0                       # Table walker walks requested
system.cpu0.istage2_mmu.stage2_tlb.walker.walkRequestOrigin_Requested::Data            0                       # Table walker requests started/completed, data/inst
system.cpu0.istage2_mmu.stage2_tlb.walker.walkRequestOrigin_Requested::Inst            0                       # Table walker requests started/completed, data/inst
system.cpu0.istage2_mmu.stage2_tlb.walker.walkRequestOrigin_Requested::total            0                       # Table walker requests started/completed, data/inst
system.cpu0.istage2_mmu.stage2_tlb.walker.walkRequestOrigin_Completed::Data            0                       # Table walker requests started/completed, data/inst
system.cpu0.istage2_mmu.stage2_tlb.walker.walkRequestOrigin_Completed::Inst            0                       # Table walker requests started/completed, data/inst
system.cpu0.istage2_mmu.stage2_tlb.walker.walkRequestOrigin_Completed::total            0                       # Table walker requests started/completed, data/inst
system.cpu0.istage2_mmu.stage2_tlb.walker.walkRequestOrigin::total            0                       # Table walker requests started/completed, data/inst
system.cpu0.istage2_mmu.stage2_tlb.inst_hits            0                       # ITB inst hits
system.cpu0.istage2_mmu.stage2_tlb.inst_misses            0                       # ITB inst misses
system.cpu0.istage2_mmu.stage2_tlb.read_hits            0                       # DTB read hits
system.cpu0.istage2_mmu.stage2_tlb.read_misses            0                       # DTB read misses
system.cpu0.istage2_mmu.stage2_tlb.write_hits            0                       # DTB write hits
system.cpu0.istage2_mmu.stage2_tlb.write_misses            0                       # DTB write misses
system.cpu0.istage2_mmu.stage2_tlb.flush_tlb            0                       # Number of times complete TLB was flushed
system.cpu0.istage2_mmu.stage2_tlb.flush_tlb_mva            0                       # Number of times TLB was flushed by MVA
system.cpu0.istage2_mmu.stage2_tlb.flush_tlb_mva_asid            0                       # Number of times TLB was flushed by MVA & ASID
system.cpu0.istage2_mmu.stage2_tlb.flush_tlb_asid            0                       # Number of times TLB was flushed by ASID
system.cpu0.istage2_mmu.stage2_tlb.flush_entries            0                       # Number of entries that have been flushed from TLB
system.cpu0.istage2_mmu.stage2_tlb.align_faults            0                       # Number of TLB faults due to alignment restrictions
system.cpu0.istage2_mmu.stage2_tlb.prefetch_faults            0                       # Number of TLB faults due to prefetch
system.cpu0.istage2_mmu.stage2_tlb.domain_faults            0                       # Number of TLB faults due to domain restrictions
system.cpu0.istage2_mmu.stage2_tlb.perms_faults            0                       # Number of TLB faults due to permissions restrictions
system.cpu0.istage2_mmu.stage2_tlb.read_accesses            0                       # DTB read accesses
system.cpu0.istage2_mmu.stage2_tlb.write_accesses            0                       # DTB write accesses
system.cpu0.istage2_mmu.stage2_tlb.inst_accesses            0                       # ITB inst accesses
system.cpu0.istage2_mmu.stage2_tlb.hits             0                       # DTB hits
system.cpu0.istage2_mmu.stage2_tlb.misses            0                       # DTB misses
system.cpu0.istage2_mmu.stage2_tlb.accesses            0                       # DTB accesses
system.cpu0.itb.walker.pwrStateResidencyTicks::UNDEFINED 424883264000                       # Cumulative time (in ticks) in various power states
system.cpu0.itb.walker.walks                        0                       # Table walker walks requested
system.cpu0.itb.walker.walkRequestOrigin_Requested::Data            0                       # Table walker requests started/completed, data/inst
system.cpu0.itb.walker.walkRequestOrigin_Requested::Inst            0                       # Table walker requests started/completed, data/inst
system.cpu0.itb.walker.walkRequestOrigin_Requested::total            0                       # Table walker requests started/completed, data/inst
system.cpu0.itb.walker.walkRequestOrigin_Completed::Data            0                       # Table walker requests started/completed, data/inst
system.cpu0.itb.walker.walkRequestOrigin_Completed::Inst            0                       # Table walker requests started/completed, data/inst
system.cpu0.itb.walker.walkRequestOrigin_Completed::total            0                       # Table walker requests started/completed, data/inst
system.cpu0.itb.walker.walkRequestOrigin::total            0                       # Table walker requests started/completed, data/inst
system.cpu0.itb.inst_hits                           0                       # ITB inst hits
system.cpu0.itb.inst_misses                         0                       # ITB inst misses
system.cpu0.itb.read_hits                           0                       # DTB read hits
system.cpu0.itb.read_misses                         0                       # DTB read misses
system.cpu0.itb.write_hits                          0                       # DTB write hits
system.cpu0.itb.write_misses                        0                       # DTB write misses
system.cpu0.itb.flush_tlb                           0                       # Number of times complete TLB was flushed
system.cpu0.itb.flush_tlb_mva                       0                       # Number of times TLB was flushed by MVA
system.cpu0.itb.flush_tlb_mva_asid                  0                       # Number of times TLB was flushed by MVA & ASID
system.cpu0.itb.flush_tlb_asid                      0                       # Number of times TLB was flushed by ASID
system.cpu0.itb.flush_entries                       0                       # Number of entries that have been flushed from TLB
system.cpu0.itb.align_faults                        0                       # Number of TLB faults due to alignment restrictions
system.cpu0.itb.prefetch_faults                     0                       # Number of TLB faults due to prefetch
system.cpu0.itb.domain_faults                       0                       # Number of TLB faults due to domain restrictions
system.cpu0.itb.perms_faults                        0                       # Number of TLB faults due to permissions restrictions
system.cpu0.itb.read_accesses                       0                       # DTB read accesses
system.cpu0.itb.write_accesses                      0                       # DTB write accesses
system.cpu0.itb.inst_accesses                       0                       # ITB inst accesses
system.cpu0.itb.hits                                0                       # DTB hits
system.cpu0.itb.misses                              0                       # DTB misses
system.cpu0.itb.accesses                            0                       # DTB accesses
system.cpu0.workload.numSyscalls                   50                       # Number of system calls
system.cpu0.pwrStateResidencyTicks::ON   424883264000                       # Cumulative time (in ticks) in various power states
system.cpu0.numCycles                       849766528                       # number of cpu cycles simulated
system.cpu0.numWorkItemsStarted                     0                       # number of work items this cpu started
system.cpu0.numWorkItemsCompleted                   0                       # number of work items this cpu completed
system.cpu0.committedInsts                  357146907                       # Number of instructions committed
system.cpu0.committedOps                    406949175                       # Number of ops (including micro ops) committed
system.cpu0.num_int_alu_accesses            371153314                       # Number of integer alu accesses
system.cpu0.num_fp_alu_accesses                    16                       # Number of float alu accesses
system.cpu0.num_vec_alu_accesses                    0                       # Number of vector alu accesses
system.cpu0.num_func_calls                   20297711                       # number of times a function call or return occured
system.cpu0.num_conditional_control_insts     46367616                       # number of instructions that are conditional controls
system.cpu0.num_int_insts                   371153314                       # number of integer instructions
system.cpu0.num_fp_insts                           16                       # number of float instructions
system.cpu0.num_vec_insts                           0                       # number of vector instructions
system.cpu0.num_int_register_reads          560555928                       # number of times the integer registers were read
system.cpu0.num_int_register_writes         283479370                       # number of times the integer registers were written
system.cpu0.num_fp_register_reads                  16                       # number of times the floating registers were read
system.cpu0.num_fp_register_writes                  0                       # number of times the floating registers were written
system.cpu0.num_vec_register_reads                  0                       # number of times the vector registers were read
system.cpu0.num_vec_register_writes                 0                       # number of times the vector registers were written
system.cpu0.num_cc_register_reads          1311330295                       # number of times the CC registers were read
system.cpu0.num_cc_register_writes          256293232                       # number of times the CC registers were written
system.cpu0.num_mem_refs                     59185699                       # number of memory refs
system.cpu0.num_load_insts                   30098562                       # Number of load instructions
system.cpu0.num_store_insts                  29087137                       # Number of store instructions
system.cpu0.num_idle_cycles                         0                       # Number of idle cycles
system.cpu0.num_busy_cycles                 849766528                       # Number of busy cycles
system.cpu0.not_idle_fraction                       1                       # Percentage of non-idle cycles
system.cpu0.idle_fraction                           0                       # Percentage of idle cycles
system.cpu0.Branches                         62603807                       # Number of branches fetched
system.cpu0.op_class::No_OpClass                    0      0.00%      0.00% # Class of executed instruction
system.cpu0.op_class::IntAlu                344901501     83.48%     83.48% # Class of executed instruction
system.cpu0.op_class::IntMult                 8998194      2.18%     85.66% # Class of executed instruction
system.cpu0.op_class::IntDiv                        0      0.00%     85.66% # Class of executed instruction
system.cpu0.op_class::FloatAdd                      0      0.00%     85.66% # Class of executed instruction
system.cpu0.op_class::FloatCmp                      0      0.00%     85.66% # Class of executed instruction
system.cpu0.op_class::FloatCvt                      0      0.00%     85.66% # Class of executed instruction
system.cpu0.op_class::FloatMult                     0      0.00%     85.66% # Class of executed instruction
system.cpu0.op_class::FloatMultAcc                  0      0.00%     85.66% # Class of executed instruction
system.cpu0.op_class::FloatDiv                      0      0.00%     85.66% # Class of executed instruction
system.cpu0.op_class::FloatMisc                     0      0.00%     85.66% # Class of executed instruction
system.cpu0.op_class::FloatSqrt                     0      0.00%     85.66% # Class of executed instruction
system.cpu0.op_class::SimdAdd                       0      0.00%     85.66% # Class of executed instruction
system.cpu0.op_class::SimdAddAcc                    0      0.00%     85.66% # Class of executed instruction
system.cpu0.op_class::SimdAlu                       0      0.00%     85.66% # Class of executed instruction
system.cpu0.op_class::SimdCmp                       0      0.00%     85.66% # Class of executed instruction
system.cpu0.op_class::SimdCvt                       0      0.00%     85.66% # Class of executed instruction
system.cpu0.op_class::SimdMisc                      0      0.00%     85.66% # Class of executed instruction
system.cpu0.op_class::SimdMult                      0      0.00%     85.66% # Class of executed instruction
system.cpu0.op_class::SimdMultAcc                   0      0.00%     85.66% # Class of executed instruction
system.cpu0.op_class::SimdShift                     0      0.00%     85.66% # Class of executed instruction
system.cpu0.op_class::SimdShiftAcc                  0      0.00%     85.66% # Class of executed instruction
system.cpu0.op_class::SimdSqrt                      0      0.00%     85.66% # Class of executed instruction
system.cpu0.op_class::SimdFloatAdd                  0      0.00%     85.66% # Class of executed instruction
system.cpu0.op_class::SimdFloatAlu                  0      0.00%     85.66% # Class of executed instruction
system.cpu0.op_class::SimdFloatCmp                  0      0.00%     85.66% # Class of executed instruction
system.cpu0.op_class::SimdFloatCvt                  0      0.00%     85.66% # Class of executed instruction
system.cpu0.op_class::SimdFloatDiv                  0      0.00%     85.66% # Class of executed instruction
system.cpu0.op_class::SimdFloatMisc             65794      0.02%     85.67% # Class of executed instruction
system.cpu0.op_class::SimdFloatMult                 0      0.00%     85.67% # Class of executed instruction
system.cpu0.op_class::SimdFloatMultAcc              0      0.00%     85.67% # Class of executed instruction
system.cpu0.op_class::SimdFloatSqrt                 0      0.00%     85.67% # Class of executed instruction
system.cpu0.op_class::MemRead                30098562      7.29%     92.96% # Class of executed instruction
system.cpu0.op_class::MemWrite               29087121      7.04%    100.00% # Class of executed instruction
system.cpu0.op_class::FloatMemRead                  0      0.00%    100.00% # Class of executed instruction
system.cpu0.op_class::FloatMemWrite                16      0.00%    100.00% # Class of executed instruction
system.cpu0.op_class::IprAccess                     0      0.00%    100.00% # Class of executed instruction
system.cpu0.op_class::InstPrefetch                  0      0.00%    100.00% # Class of executed instruction
system.cpu0.op_class::total                 413151188                       # Class of executed instruction
system.cpu0.dcache.tags.pwrStateResidencyTicks::UNDEFINED 424883264000                       # Cumulative time (in ticks) in various power states
system.cpu0.dcache.tags.replacements            69581                       # number of replacements
system.cpu0.dcache.tags.tagsinuse         1022.429020                       # Cycle average of tags in use
system.cpu0.dcache.tags.total_refs           53370429                       # Total number of references to valid blocks.
system.cpu0.dcache.tags.sampled_refs            70603                       # Sample count of references to valid blocks.
system.cpu0.dcache.tags.avg_refs           755.922964                       # Average number of references to valid blocks.
system.cpu0.dcache.tags.warmup_cycle       2282237000                       # Cycle when the warmup percentage was hit.
system.cpu0.dcache.tags.occ_blocks::cpu0.data  1022.429020                       # Average occupied blocks per requestor
system.cpu0.dcache.tags.occ_percent::cpu0.data     0.998466                       # Average percentage of cache occupancy
system.cpu0.dcache.tags.occ_percent::total     0.998466                       # Average percentage of cache occupancy
system.cpu0.dcache.tags.occ_task_id_blocks::1024         1022                       # Occupied blocks per task id
system.cpu0.dcache.tags.age_task_id_blocks_1024::0           18                       # Occupied blocks per task id
system.cpu0.dcache.tags.age_task_id_blocks_1024::1          328                       # Occupied blocks per task id
system.cpu0.dcache.tags.age_task_id_blocks_1024::2          676                       # Occupied blocks per task id
system.cpu0.dcache.tags.occ_task_id_percent::1024     0.998047                       # Percentage of cache occupancy per task id
system.cpu0.dcache.tags.tag_accesses        106955894                       # Number of tag accesses
system.cpu0.dcache.tags.data_accesses       106955894                       # Number of data accesses
system.cpu0.dcache.pwrStateResidencyTicks::UNDEFINED 424883264000                       # Cumulative time (in ticks) in various power states
system.cpu0.dcache.ReadReq_hits::cpu0.data     24369997                       # number of ReadReq hits
system.cpu0.dcache.ReadReq_hits::total       24369997                       # number of ReadReq hits
system.cpu0.dcache.WriteReq_hits::cpu0.data     28995850                       # number of WriteReq hits
system.cpu0.dcache.WriteReq_hits::total      28995850                       # number of WriteReq hits
system.cpu0.dcache.LoadLockedReq_hits::cpu0.data          325                       # number of LoadLockedReq hits
system.cpu0.dcache.LoadLockedReq_hits::total          325                       # number of LoadLockedReq hits
system.cpu0.dcache.StoreCondReq_hits::cpu0.data          138                       # number of StoreCondReq hits
system.cpu0.dcache.StoreCondReq_hits::total          138                       # number of StoreCondReq hits
system.cpu0.dcache.demand_hits::cpu0.data     53365847                       # number of demand (read+write) hits
system.cpu0.dcache.demand_hits::total        53365847                       # number of demand (read+write) hits
system.cpu0.dcache.overall_hits::cpu0.data     53365847                       # number of overall hits
system.cpu0.dcache.overall_hits::total       53365847                       # number of overall hits
system.cpu0.dcache.ReadReq_misses::cpu0.data        25316                       # number of ReadReq misses
system.cpu0.dcache.ReadReq_misses::total        25316                       # number of ReadReq misses
system.cpu0.dcache.WriteReq_misses::cpu0.data        50907                       # number of WriteReq misses
system.cpu0.dcache.WriteReq_misses::total        50907                       # number of WriteReq misses
system.cpu0.dcache.LoadLockedReq_misses::cpu0.data           42                       # number of LoadLockedReq misses
system.cpu0.dcache.LoadLockedReq_misses::total           42                       # number of LoadLockedReq misses
system.cpu0.dcache.StoreCondReq_misses::cpu0.data           25                       # number of StoreCondReq misses
system.cpu0.dcache.StoreCondReq_misses::total           25                       # number of StoreCondReq misses
system.cpu0.dcache.demand_misses::cpu0.data        76223                       # number of demand (read+write) misses
system.cpu0.dcache.demand_misses::total         76223                       # number of demand (read+write) misses
system.cpu0.dcache.overall_misses::cpu0.data        76223                       # number of overall misses
system.cpu0.dcache.overall_misses::total        76223                       # number of overall misses
system.cpu0.dcache.ReadReq_miss_latency::cpu0.data   1746413500                       # number of ReadReq miss cycles
system.cpu0.dcache.ReadReq_miss_latency::total   1746413500                       # number of ReadReq miss cycles
system.cpu0.dcache.WriteReq_miss_latency::cpu0.data  11863808500                       # number of WriteReq miss cycles
system.cpu0.dcache.WriteReq_miss_latency::total  11863808500                       # number of WriteReq miss cycles
system.cpu0.dcache.LoadLockedReq_miss_latency::cpu0.data      1658000                       # number of LoadLockedReq miss cycles
system.cpu0.dcache.LoadLockedReq_miss_latency::total      1658000                       # number of LoadLockedReq miss cycles
system.cpu0.dcache.StoreCondReq_miss_latency::cpu0.data        78000                       # number of StoreCondReq miss cycles
system.cpu0.dcache.StoreCondReq_miss_latency::total        78000                       # number of StoreCondReq miss cycles
system.cpu0.dcache.StoreCondFailReq_miss_latency::cpu0.data        50000                       # number of StoreCondFailReq miss cycles
system.cpu0.dcache.StoreCondFailReq_miss_latency::total        50000                       # number of StoreCondFailReq miss cycles
system.cpu0.dcache.demand_miss_latency::cpu0.data  13610222000                       # number of demand (read+write) miss cycles
system.cpu0.dcache.demand_miss_latency::total  13610222000                       # number of demand (read+write) miss cycles
system.cpu0.dcache.overall_miss_latency::cpu0.data  13610222000                       # number of overall miss cycles
system.cpu0.dcache.overall_miss_latency::total  13610222000                       # number of overall miss cycles
system.cpu0.dcache.ReadReq_accesses::cpu0.data     24395313                       # number of ReadReq accesses(hits+misses)
system.cpu0.dcache.ReadReq_accesses::total     24395313                       # number of ReadReq accesses(hits+misses)
system.cpu0.dcache.WriteReq_accesses::cpu0.data     29046757                       # number of WriteReq accesses(hits+misses)
system.cpu0.dcache.WriteReq_accesses::total     29046757                       # number of WriteReq accesses(hits+misses)
system.cpu0.dcache.LoadLockedReq_accesses::cpu0.data          367                       # number of LoadLockedReq accesses(hits+misses)
system.cpu0.dcache.LoadLockedReq_accesses::total          367                       # number of LoadLockedReq accesses(hits+misses)
system.cpu0.dcache.StoreCondReq_accesses::cpu0.data          163                       # number of StoreCondReq accesses(hits+misses)
system.cpu0.dcache.StoreCondReq_accesses::total          163                       # number of StoreCondReq accesses(hits+misses)
system.cpu0.dcache.demand_accesses::cpu0.data     53442070                       # number of demand (read+write) accesses
system.cpu0.dcache.demand_accesses::total     53442070                       # number of demand (read+write) accesses
system.cpu0.dcache.overall_accesses::cpu0.data     53442070                       # number of overall (read+write) accesses
system.cpu0.dcache.overall_accesses::total     53442070                       # number of overall (read+write) accesses
system.cpu0.dcache.ReadReq_miss_rate::cpu0.data     0.001038                       # miss rate for ReadReq accesses
system.cpu0.dcache.ReadReq_miss_rate::total     0.001038                       # miss rate for ReadReq accesses
system.cpu0.dcache.WriteReq_miss_rate::cpu0.data     0.001753                       # miss rate for WriteReq accesses
system.cpu0.dcache.WriteReq_miss_rate::total     0.001753                       # miss rate for WriteReq accesses
system.cpu0.dcache.LoadLockedReq_miss_rate::cpu0.data     0.114441                       # miss rate for LoadLockedReq accesses
system.cpu0.dcache.LoadLockedReq_miss_rate::total     0.114441                       # miss rate for LoadLockedReq accesses
system.cpu0.dcache.StoreCondReq_miss_rate::cpu0.data     0.153374                       # miss rate for StoreCondReq accesses
system.cpu0.dcache.StoreCondReq_miss_rate::total     0.153374                       # miss rate for StoreCondReq accesses
system.cpu0.dcache.demand_miss_rate::cpu0.data     0.001426                       # miss rate for demand accesses
system.cpu0.dcache.demand_miss_rate::total     0.001426                       # miss rate for demand accesses
system.cpu0.dcache.overall_miss_rate::cpu0.data     0.001426                       # miss rate for overall accesses
system.cpu0.dcache.overall_miss_rate::total     0.001426                       # miss rate for overall accesses
system.cpu0.dcache.ReadReq_avg_miss_latency::cpu0.data 68984.574972                       # average ReadReq miss latency
system.cpu0.dcache.ReadReq_avg_miss_latency::total 68984.574972                       # average ReadReq miss latency
system.cpu0.dcache.WriteReq_avg_miss_latency::cpu0.data 233048.667177                       # average WriteReq miss latency
system.cpu0.dcache.WriteReq_avg_miss_latency::total 233048.667177                       # average WriteReq miss latency
system.cpu0.dcache.LoadLockedReq_avg_miss_latency::cpu0.data 39476.190476                       # average LoadLockedReq miss latency
system.cpu0.dcache.LoadLockedReq_avg_miss_latency::total 39476.190476                       # average LoadLockedReq miss latency
system.cpu0.dcache.StoreCondReq_avg_miss_latency::cpu0.data         3120                       # average StoreCondReq miss latency
system.cpu0.dcache.StoreCondReq_avg_miss_latency::total         3120                       # average StoreCondReq miss latency
system.cpu0.dcache.StoreCondFailReq_avg_miss_latency::cpu0.data          inf                       # average StoreCondFailReq miss latency
system.cpu0.dcache.StoreCondFailReq_avg_miss_latency::total          inf                       # average StoreCondFailReq miss latency
system.cpu0.dcache.demand_avg_miss_latency::cpu0.data 178557.941829                       # average overall miss latency
system.cpu0.dcache.demand_avg_miss_latency::total 178557.941829                       # average overall miss latency
system.cpu0.dcache.overall_avg_miss_latency::cpu0.data 178557.941829                       # average overall miss latency
system.cpu0.dcache.overall_avg_miss_latency::total 178557.941829                       # average overall miss latency
system.cpu0.dcache.blocked_cycles::no_mshrs            0                       # number of cycles access was blocked
system.cpu0.dcache.blocked_cycles::no_targets            0                       # number of cycles access was blocked
system.cpu0.dcache.blocked::no_mshrs                0                       # number of cycles access was blocked
system.cpu0.dcache.blocked::no_targets              0                       # number of cycles access was blocked
system.cpu0.dcache.avg_blocked_cycles::no_mshrs          nan                       # average number of cycles each access was blocked
system.cpu0.dcache.avg_blocked_cycles::no_targets          nan                       # average number of cycles each access was blocked
system.cpu0.dcache.writebacks::writebacks        53125                       # number of writebacks
system.cpu0.dcache.writebacks::total            53125                       # number of writebacks
system.cpu0.dcache.ReadReq_mshr_misses::cpu0.data        25316                       # number of ReadReq MSHR misses
system.cpu0.dcache.ReadReq_mshr_misses::total        25316                       # number of ReadReq MSHR misses
system.cpu0.dcache.WriteReq_mshr_misses::cpu0.data        50907                       # number of WriteReq MSHR misses
system.cpu0.dcache.WriteReq_mshr_misses::total        50907                       # number of WriteReq MSHR misses
system.cpu0.dcache.LoadLockedReq_mshr_misses::cpu0.data           42                       # number of LoadLockedReq MSHR misses
system.cpu0.dcache.LoadLockedReq_mshr_misses::total           42                       # number of LoadLockedReq MSHR misses
system.cpu0.dcache.StoreCondReq_mshr_misses::cpu0.data           25                       # number of StoreCondReq MSHR misses
system.cpu0.dcache.StoreCondReq_mshr_misses::total           25                       # number of StoreCondReq MSHR misses
system.cpu0.dcache.demand_mshr_misses::cpu0.data        76223                       # number of demand (read+write) MSHR misses
system.cpu0.dcache.demand_mshr_misses::total        76223                       # number of demand (read+write) MSHR misses
system.cpu0.dcache.overall_mshr_misses::cpu0.data        76223                       # number of overall MSHR misses
system.cpu0.dcache.overall_mshr_misses::total        76223                       # number of overall MSHR misses
system.cpu0.dcache.ReadReq_mshr_miss_latency::cpu0.data   1721097500                       # number of ReadReq MSHR miss cycles
system.cpu0.dcache.ReadReq_mshr_miss_latency::total   1721097500                       # number of ReadReq MSHR miss cycles
system.cpu0.dcache.WriteReq_mshr_miss_latency::cpu0.data  11812901500                       # number of WriteReq MSHR miss cycles
system.cpu0.dcache.WriteReq_mshr_miss_latency::total  11812901500                       # number of WriteReq MSHR miss cycles
system.cpu0.dcache.LoadLockedReq_mshr_miss_latency::cpu0.data      1616000                       # number of LoadLockedReq MSHR miss cycles
system.cpu0.dcache.LoadLockedReq_mshr_miss_latency::total      1616000                       # number of LoadLockedReq MSHR miss cycles
system.cpu0.dcache.StoreCondReq_mshr_miss_latency::cpu0.data        61000                       # number of StoreCondReq MSHR miss cycles
system.cpu0.dcache.StoreCondReq_mshr_miss_latency::total        61000                       # number of StoreCondReq MSHR miss cycles
system.cpu0.dcache.StoreCondFailReq_mshr_miss_latency::cpu0.data        42000                       # number of StoreCondFailReq MSHR miss cycles
system.cpu0.dcache.StoreCondFailReq_mshr_miss_latency::total        42000                       # number of StoreCondFailReq MSHR miss cycles
system.cpu0.dcache.demand_mshr_miss_latency::cpu0.data  13533999000                       # number of demand (read+write) MSHR miss cycles
system.cpu0.dcache.demand_mshr_miss_latency::total  13533999000                       # number of demand (read+write) MSHR miss cycles
system.cpu0.dcache.overall_mshr_miss_latency::cpu0.data  13533999000                       # number of overall MSHR miss cycles
system.cpu0.dcache.overall_mshr_miss_latency::total  13533999000                       # number of overall MSHR miss cycles
system.cpu0.dcache.ReadReq_mshr_miss_rate::cpu0.data     0.001038                       # mshr miss rate for ReadReq accesses
system.cpu0.dcache.ReadReq_mshr_miss_rate::total     0.001038                       # mshr miss rate for ReadReq accesses
system.cpu0.dcache.WriteReq_mshr_miss_rate::cpu0.data     0.001753                       # mshr miss rate for WriteReq accesses
system.cpu0.dcache.WriteReq_mshr_miss_rate::total     0.001753                       # mshr miss rate for WriteReq accesses
system.cpu0.dcache.LoadLockedReq_mshr_miss_rate::cpu0.data     0.114441                       # mshr miss rate for LoadLockedReq accesses
system.cpu0.dcache.LoadLockedReq_mshr_miss_rate::total     0.114441                       # mshr miss rate for LoadLockedReq accesses
system.cpu0.dcache.StoreCondReq_mshr_miss_rate::cpu0.data     0.153374                       # mshr miss rate for StoreCondReq accesses
system.cpu0.dcache.StoreCondReq_mshr_miss_rate::total     0.153374                       # mshr miss rate for StoreCondReq accesses
system.cpu0.dcache.demand_mshr_miss_rate::cpu0.data     0.001426                       # mshr miss rate for demand accesses
system.cpu0.dcache.demand_mshr_miss_rate::total     0.001426                       # mshr miss rate for demand accesses
system.cpu0.dcache.overall_mshr_miss_rate::cpu0.data     0.001426                       # mshr miss rate for overall accesses
system.cpu0.dcache.overall_mshr_miss_rate::total     0.001426                       # mshr miss rate for overall accesses
system.cpu0.dcache.ReadReq_avg_mshr_miss_latency::cpu0.data 67984.574972                       # average ReadReq mshr miss latency
system.cpu0.dcache.ReadReq_avg_mshr_miss_latency::total 67984.574972                       # average ReadReq mshr miss latency
system.cpu0.dcache.WriteReq_avg_mshr_miss_latency::cpu0.data 232048.667177                       # average WriteReq mshr miss latency
system.cpu0.dcache.WriteReq_avg_mshr_miss_latency::total 232048.667177                       # average WriteReq mshr miss latency
system.cpu0.dcache.LoadLockedReq_avg_mshr_miss_latency::cpu0.data 38476.190476                       # average LoadLockedReq mshr miss latency
system.cpu0.dcache.LoadLockedReq_avg_mshr_miss_latency::total 38476.190476                       # average LoadLockedReq mshr miss latency
system.cpu0.dcache.StoreCondReq_avg_mshr_miss_latency::cpu0.data         2440                       # average StoreCondReq mshr miss latency
system.cpu0.dcache.StoreCondReq_avg_mshr_miss_latency::total         2440                       # average StoreCondReq mshr miss latency
system.cpu0.dcache.StoreCondFailReq_avg_mshr_miss_latency::cpu0.data          inf                       # average StoreCondFailReq mshr miss latency
system.cpu0.dcache.StoreCondFailReq_avg_mshr_miss_latency::total          inf                       # average StoreCondFailReq mshr miss latency
system.cpu0.dcache.demand_avg_mshr_miss_latency::cpu0.data 177557.941829                       # average overall mshr miss latency
system.cpu0.dcache.demand_avg_mshr_miss_latency::total 177557.941829                       # average overall mshr miss latency
system.cpu0.dcache.overall_avg_mshr_miss_latency::cpu0.data 177557.941829                       # average overall mshr miss latency
system.cpu0.dcache.overall_avg_mshr_miss_latency::total 177557.941829                       # average overall mshr miss latency
system.cpu0.icache.tags.pwrStateResidencyTicks::UNDEFINED 424883264000                       # Cumulative time (in ticks) in various power states
system.cpu0.icache.tags.replacements            66851                       # number of replacements
system.cpu0.icache.tags.tagsinuse          493.877328                       # Cycle average of tags in use
[...]
system.membus.snoop_filter.hit_multi_snoops            0                       # Number of snoops hitting in the snoop filter with multiple (>1) holders of the requested data.
system.membus.pwrStateResidencyTicks::UNDEFINED 424883264000                       # Cumulative time (in ticks) in various power states
system.membus.trans_dist::ReadResp              42430                       # Transaction distribution
system.membus.trans_dist::WritebackDirty        47273                       # Transaction distribution
system.membus.trans_dist::CleanEvict            29738                       # Transaction distribution
system.membus.trans_dist::UpgradeReq               57                       # Transaction distribution
system.membus.trans_dist::SCUpgradeReq             74                       # Transaction distribution
system.membus.trans_dist::ReadExReq             67923                       # Transaction distribution
system.membus.trans_dist::ReadExResp            67906                       # Transaction distribution
system.membus.trans_dist::ReadSharedReq         42430                       # Transaction distribution
system.membus.pkt_count_system.l3.mem_side::system.mem_ctrls.port       297831                       # Packet count per connected master and slave (bytes)
system.membus.pkt_count::total                 297831                       # Packet count per connected master and slave (bytes)
system.membus.pkt_size_system.l3.mem_side::system.mem_ctrls.port     10086976                       # Cumulative packet size per connected master and slave (bytes)
system.membus.pkt_size::total                10086976                       # Cumulative packet size per connected master and slave (bytes)
system.membus.snoops                              148                       # Total snoops (count)
system.membus.snoopTraffic                          0                       # Total snoop traffic (bytes)
system.membus.snoop_fanout::samples            110484                       # Request fanout histogram
system.membus.snoop_fanout::mean                    0                       # Request fanout histogram
system.membus.snoop_fanout::stdev                   0                       # Request fanout histogram
system.membus.snoop_fanout::underflows              0      0.00%      0.00% # Request fanout histogram
system.membus.snoop_fanout::0                  110484    100.00%    100.00% # Request fanout histogram
system.membus.snoop_fanout::1                       0      0.00%    100.00% # Request fanout histogram
system.membus.snoop_fanout::overflows               0      0.00%    100.00% # Request fanout histogram
system.membus.snoop_fanout::min_value               0                       # Request fanout histogram
system.membus.snoop_fanout::max_value               0                       # Request fanout histogram
system.membus.snoop_fanout::total              110484                       # Request fanout histogram
system.membus.reqLayer0.occupancy           378483500                       # Layer occupancy (ticks)
system.membus.reqLayer0.utilization               0.1                       # Layer utilization (%)
system.membus.respLayer1.occupancy          597028000                       # Layer occupancy (ticks)
system.membus.respLayer1.utilization              0.1                       # Layer utilization (%)
system.tol2bus0.snoop_filter.tot_requests       518391                       # Total number of requests made to the snoop filter.
system.tol2bus0.snoop_filter.hit_single_requests       267822                       # Number of requests hitting in the snoop filter with a single holder of the requested data.
system.tol2bus0.snoop_filter.hit_multi_requests         1393                       # Number of requests hitting in the snoop filter with multiple (>1) holders of the requested data.
system.tol2bus0.snoop_filter.tot_snoops         34043                       # Total number of snoops made to the snoop filter.
system.tol2bus0.snoop_filter.hit_single_snoops        33712                       # Number of snoops hitting in the snoop filter with a single holder of the requested data.
system.tol2bus0.snoop_filter.hit_multi_snoops          331                       # Number of snoops hitting in the snoop filter with multiple (>1) holders of the requested data.
system.tol2bus0.pwrStateResidencyTicks::UNDEFINED 424883264000                       # Cumulative time (in ticks) in various power states
system.tol2bus0.trans_dist::ReadResp           167927                       # Transaction distribution
system.tol2bus0.trans_dist::WritebackDirty       250982                       # Transaction distribution
system.tol2bus0.trans_dist::WritebackClean        66853                       # Transaction distribution
system.tol2bus0.trans_dist::CleanEvict         116668                       # Transaction distribution
system.tol2bus0.trans_dist::UpgradeReq          22793                       # Transaction distribution
system.tol2bus0.trans_dist::SCUpgradeReq           82                       # Transaction distribution
system.tol2bus0.trans_dist::UpgradeResp         22875                       # Transaction distribution
system.tol2bus0.trans_dist::SCUpgradeFailReq           37                       # Transaction distribution
system.tol2bus0.trans_dist::UpgradeFailResp           37                       # Transaction distribution
system.tol2bus0.trans_dist::ReadExReq           82531                       # Transaction distribution
system.tol2bus0.trans_dist::ReadExResp          82531                       # Transaction distribution
system.tol2bus0.trans_dist::ReadCleanReq        67863                       # Transaction distribution
system.tol2bus0.trans_dist::ReadSharedReq       100064                       # Transaction distribution
system.tol2bus0.pkt_count_system.cpu0.icache.mem_side::system.l20.cpu_side       201575                       # Packet count per connected master and slave (bytes)
system.tol2bus0.pkt_count_system.cpu0.dcache.mem_side::system.l20.cpu_side       222053                       # Packet count per connected master and slave (bytes)
system.tol2bus0.pkt_count_system.cpu1.icache.mem_side::system.l20.cpu_side          341                       # Packet count per connected master and slave (bytes)
system.tol2bus0.pkt_count_system.cpu1.dcache.mem_side::system.l20.cpu_side       120919                       # Packet count per connected master and slave (bytes)
system.tol2bus0.pkt_count_system.cpu2.icache.mem_side::system.l20.cpu_side          328                       # Packet count per connected master and slave (bytes)
system.tol2bus0.pkt_count_system.cpu2.dcache.mem_side::system.l20.cpu_side       121595                       # Packet count per connected master and slave (bytes)
system.tol2bus0.pkt_count_system.cpu3.icache.mem_side::system.l20.cpu_side          335                       # Packet count per connected master and slave (bytes)
system.tol2bus0.pkt_count_system.cpu3.dcache.mem_side::system.l20.cpu_side       124094                       # Packet count per connected master and slave (bytes)
system.tol2bus0.pkt_count::total               791240                       # Packet count per connected master and slave (bytes)
system.tol2bus0.pkt_size_system.cpu0.icache.mem_side::system.l20.cpu_side      8589632                       # Cumulative packet size per connected master and slave (bytes)
system.tol2bus0.pkt_size_system.cpu0.dcache.mem_side::system.l20.cpu_side      7919104                       # Cumulative packet size per connected master and slave (bytes)
system.tol2bus0.pkt_size_system.cpu1.icache.mem_side::system.l20.cpu_side        10944                       # Cumulative packet size per connected master and slave (bytes)
system.tol2bus0.pkt_size_system.cpu1.dcache.mem_side::system.l20.cpu_side      3660608                       # Cumulative packet size per connected master and slave (bytes)
system.tol2bus0.pkt_size_system.cpu2.icache.mem_side::system.l20.cpu_side        10496                       # Cumulative packet size per connected master and slave (bytes)
system.tol2bus0.pkt_size_system.cpu2.dcache.mem_side::system.l20.cpu_side      3651008                       # Cumulative packet size per connected master and slave (bytes)
system.tol2bus0.pkt_size_system.cpu3.icache.mem_side::system.l20.cpu_side        10752                       # Cumulative packet size per connected master and slave (bytes)
system.tol2bus0.pkt_size_system.cpu3.dcache.mem_side::system.l20.cpu_side      3717248                       # Cumulative packet size per connected master and slave (bytes)
system.tol2bus0.pkt_size::total              27569792                       # Cumulative packet size per connected master and slave (bytes)
system.tol2bus0.snoops                         190003                       # Total snoops (count)
system.tol2bus0.snoopTraffic                  8803328                       # Total snoop traffic (bytes)
system.tol2bus0.snoop_fanout::samples          462852                       # Request fanout histogram
system.tol2bus0.snoop_fanout::mean           0.081002                       # Request fanout histogram
system.tol2bus0.snoop_fanout::stdev          0.295715                       # Request fanout histogram
system.tol2bus0.snoop_fanout::underflows            0      0.00%      0.00% # Request fanout histogram
system.tol2bus0.snoop_fanout::0                427307     92.32%     92.32% # Request fanout histogram
system.tol2bus0.snoop_fanout::1                 34438      7.44%     99.76% # Request fanout histogram
system.tol2bus0.snoop_fanout::2                   486      0.11%     99.87% # Request fanout histogram
system.tol2bus0.snoop_fanout::3                   406      0.09%     99.95% # Request fanout histogram
system.tol2bus0.snoop_fanout::4                   211      0.05%    100.00% # Request fanout histogram
system.tol2bus0.snoop_fanout::5                     4      0.00%    100.00% # Request fanout histogram
system.tol2bus0.snoop_fanout::6                     0      0.00%    100.00% # Request fanout histogram
system.tol2bus0.snoop_fanout::7                     0      0.00%    100.00% # Request fanout histogram
system.tol2bus0.snoop_fanout::8                     0      0.00%    100.00% # Request fanout histogram
system.tol2bus0.snoop_fanout::overflows             0      0.00%    100.00% # Request fanout histogram
system.tol2bus0.snoop_fanout::min_value             0                       # Request fanout histogram
system.tol2bus0.snoop_fanout::max_value             5                       # Request fanout histogram
system.tol2bus0.snoop_fanout::total            462852                       # Request fanout histogram
system.tol2bus0.reqLayer0.occupancy         439875985                       # Layer occupancy (ticks)
system.tol2bus0.reqLayer0.utilization             0.1                       # Layer utilization (%)
system.tol2bus0.respLayer0.occupancy        101046488                       # Layer occupancy (ticks)
system.tol2bus0.respLayer0.utilization            0.0                       # Layer utilization (%)
system.tol2bus0.respLayer1.occupancy        108845983                       # Layer occupancy (ticks)
system.tol2bus0.respLayer1.utilization            0.0                       # Layer utilization (%)
system.tol2bus0.respLayer4.occupancy           270457                       # Layer occupancy (ticks)
system.tol2bus0.respLayer4.utilization            0.0                       # Layer utilization (%)
system.tol2bus0.respLayer5.occupancy         58385978                       # Layer occupancy (ticks)
system.tol2bus0.respLayer5.utilization            0.0                       # Layer utilization (%)
system.tol2bus0.respLayer8.occupancy           265442                       # Layer occupancy (ticks)
system.tol2bus0.respLayer8.utilization            0.0                       # Layer utilization (%)
system.tol2bus0.respLayer9.occupancy         58542956                       # Layer occupancy (ticks)
system.tol2bus0.respLayer9.utilization            0.0                       # Layer utilization (%)
system.tol2bus0.respLayer12.occupancy          266454                       # Layer occupancy (ticks)
system.tol2bus0.respLayer12.utilization           0.0                       # Layer utilization (%)
system.tol2bus0.respLayer13.occupancy        59667447                       # Layer occupancy (ticks)
system.tol2bus0.respLayer13.utilization           0.0                       # Layer utilization (%)
system.tol2bus1.snoop_filter.tot_requests            0                       # Total number of requests made to the snoop filter.
system.tol2bus1.snoop_filter.hit_single_requests            0                       # Number of requests hitting in the snoop filter with a single holder of the requested data.
system.tol2bus1.snoop_filter.hit_multi_requests            0                       # Number of requests hitting in the snoop filter with multiple (>1) holders of the requested data.
system.tol2bus1.snoop_filter.tot_snoops             0                       # Total number of snoops made to the snoop filter.
system.tol2bus1.snoop_filter.hit_single_snoops            0                       # Number of snoops hitting in the snoop filter with a single holder of the requested data.
system.tol2bus1.snoop_filter.hit_multi_snoops            0                       # Number of snoops hitting in the snoop filter with multiple (>1) holders of the requested data.
system.tol2bus1.pwrStateResidencyTicks::UNDEFINED 424883264000                       # Cumulative time (in ticks) in various power states
system.tol2bus1.snoops                              0                       # Total snoops (count)
system.tol2bus1.snoopTraffic                        0                       # Total snoop traffic (bytes)
system.tol2bus1.snoop_fanout::samples               0                       # Request fanout histogram
system.tol2bus1.snoop_fanout::mean                nan                       # Request fanout histogram
system.tol2bus1.snoop_fanout::stdev               nan                       # Request fanout histogram
system.tol2bus1.snoop_fanout::underflows            0                       # Request fanout histogram
system.tol2bus1.snoop_fanout::0                     0                       # Request fanout histogram
system.tol2bus1.snoop_fanout::1                     0                       # Request fanout histogram
system.tol2bus1.snoop_fanout::2                     0                       # Request fanout histogram
system.tol2bus1.snoop_fanout::3                     0                       # Request fanout histogram
system.tol2bus1.snoop_fanout::4                     0                       # Request fanout histogram
system.tol2bus1.snoop_fanout::5                     0                       # Request fanout histogram
system.tol2bus1.snoop_fanout::6                     0                       # Request fanout histogram
system.tol2bus1.snoop_fanout::7                     0                       # Request fanout histogram
system.tol2bus1.snoop_fanout::8                     0                       # Request fanout histogram
system.tol2bus1.snoop_fanout::overflows             0                       # Request fanout histogram
system.tol2bus1.snoop_fanout::min_value             0                       # Request fanout histogram
system.tol2bus1.snoop_fanout::max_value             0                       # Request fanout histogram
system.tol2bus1.snoop_fanout::total                 0                       # Request fanout histogram
system.tol3bus.snoop_filter.tot_requests       358850                       # Total number of requests made to the snoop filter.
system.tol3bus.snoop_filter.hit_single_requests       179501                       # Number of requests hitting in the snoop filter with a single holder of the requested data.
system.tol3bus.snoop_filter.hit_multi_requests            0                       # Number of requests hitting in the snoop filter with multiple (>1) holders of the requested data.
system.tol3bus.snoop_filter.tot_snoops            958                       # Total number of snoops made to the snoop filter.
system.tol3bus.snoop_filter.hit_single_snoops          958                       # Number of snoops hitting in the snoop filter with a single holder of the requested data.
system.tol3bus.snoop_filter.hit_multi_snoops            0                       # Number of snoops hitting in the snoop filter with multiple (>1) holders of the requested data.
system.tol3bus.pwrStateResidencyTicks::UNDEFINED 424883264000                       # Cumulative time (in ticks) in various power states
system.tol3bus.trans_dist::ReadResp             96975                       # Transaction distribution
system.tol3bus.trans_dist::WritebackDirty       184406                       # Transaction distribution
system.tol3bus.trans_dist::CleanEvict           72487                       # Transaction distribution
system.tol3bus.trans_dist::UpgradeReq              57                       # Transaction distribution
system.tol3bus.trans_dist::SCUpgradeReq            74                       # Transaction distribution
system.tol3bus.trans_dist::ReadExReq            82441                       # Transaction distribution
system.tol3bus.trans_dist::ReadExResp           82424                       # Transaction distribution
system.tol3bus.trans_dist::ReadSharedReq        96975                       # Transaction distribution
system.tol3bus.pkt_count_system.l20.mem_side::system.l3.cpu_side       538249                       # Packet count per connected master and slave (bytes)
system.tol3bus.pkt_count::total                538249                       # Packet count per connected master and slave (bytes)
system.tol3bus.pkt_size_system.l20.mem_side::system.l3.cpu_side     20258048                       # Cumulative packet size per connected master and slave (bytes)
system.tol3bus.pkt_size::total               20258048                       # Cumulative packet size per connected master and slave (bytes)
system.tol3bus.snoops                           77738                       # Total snoops (count)
system.tol3bus.snoopTraffic                   3025472                       # Total snoop traffic (bytes)
system.tol3bus.snoop_fanout::samples           257137                       # Request fanout histogram
system.tol3bus.snoop_fanout::mean            0.003726                       # Request fanout histogram
system.tol3bus.snoop_fanout::stdev           0.060924                       # Request fanout histogram
system.tol3bus.snoop_fanout::underflows             0      0.00%      0.00% # Request fanout histogram
system.tol3bus.snoop_fanout::0                 256179     99.63%     99.63% # Request fanout histogram
system.tol3bus.snoop_fanout::1                    958      0.37%    100.00% # Request fanout histogram
system.tol3bus.snoop_fanout::2                      0      0.00%    100.00% # Request fanout histogram
system.tol3bus.snoop_fanout::overflows              0      0.00%    100.00% # Request fanout histogram
system.tol3bus.snoop_fanout::min_value              0                       # Request fanout histogram
system.tol3bus.snoop_fanout::max_value              1                       # Request fanout histogram
system.tol3bus.snoop_fanout::total             257137                       # Request fanout histogram
system.tol3bus.reqLayer0.occupancy          316484000                       # Layer occupancy (ticks)
system.tol3bus.reqLayer0.utilization              0.1                       # Layer utilization (%)
system.tol3bus.respLayer0.occupancy         269098500                       # Layer occupancy (ticks)
system.tol3bus.respLayer0.utilization             0.1                       # Layer utilization (%)

---------- End Simulation Statistics   ----------
